*//----------------------------------//
*//       RPOLYP                     //
*//--------------------------------- //
.subckt RPOLYP_S PLUS MINUS SUB simR=0 simL=0 w=0 rcont=0 csub=0 mcm_RPOLYP_r=0
.param mcmScale='1/sqrt(simL*w)'
.flat r0
R0 (PLUS MINUS) '(simR*(((1+mcm_RPOLYP_r*mcmScale)-1)+1)*(1+1.1E-5*abs(v(PLUS)-v(MINUS)))*(1+3.02E-3*(temper-25)-3.99E-7*(temper-25)*(temper-25))+rcont)*RPOLYP_r'
C0 (PLUS SUB)  'csub/2'
C1 (MINUS SUB) 'csub/2'

.ends RPOLYP_S


