*//----------------------------------//
*//       RSPOLYP                    //
*//--------------------------------- //
.subckt RSPOLYP_S PLUS MINUS SUB simR=0 simL=0 w=0 rcont=0 csub=0 mcm_RSPOLYP_r=0
.param mcmScale='1/sqrt(simL*w)'
.flat r0
R0 (PLUS MINUS) '(simR*(((1+mcm_RSPOLYP_r*mcmScale)-1)+1)*(1-3.3E-5*abs(v(PLUS)-v(MINUS)))*(1-3.02E-4*(temper-25)+4.71E-7*(temper-25)*(temper-25))+rcont)*RSPOLYP_r'
C0 (PLUS SUB)  'csub/2'
C1 (MINUS SUB) 'csub/2'

.ends RSPOLYP_S


