*simulator lang=spice

.SUBCKT NENHT33_S D G S B l=0 wpf=0 as=0 ad=0 ps=0 pd=0 nrs=0 nrd=0 simM=1 sa=0 sb=0 sc=0 sca=0 scb=0 scc=0  mcm_NENHT33_vth0=0 mcm_NENHT33_u0=0
** Pelgrom Scaling parameter **
.param mcmScale='1/sqrt(l*wpf)*1/sqrt(simM)'

.flat M0
M0 D G S B NENHT33  l=l w=wpf as=as ad=ad ps=ps pd=pd nrs=nrs nrd=nrd
+ m=simM sa=sa sb=sb sc=sc sca=sca scb=scb scc=scc


******************* GE33Mvt Slow NMOS and Slow PMOS ******************
*
* v1
*  Date 2005. 2. 7
*
.model  NENHT33.0  nmos  level = 54
+lmin    = 9.82e-007       lmax    = 1.001e-005      wmin    = 3e-006          wmax    = 0.00010001    
+version = 4.5             binunit = 1               paramchk= 1               mobmod  = 0             
+capmod  = 2               igcmod  = 1               igbmod  = 1               geomod  = 0             
+diomod  = 1               rdsmod  = 0               rbodymod= 0               rgatemod= 0             
+permod  = 1               acnqsmod= 0               trnqsmod= 0             
+noia    = 2.5e+41         noib    = 2.33e+25        noic    = 8.75
+em      = 4.1e+7          
+tnom    = 25              toxe    = 7.75e-009       toxp    = 7.55e-009       toxm    = 7.5e-009      
+epsrox  = 3.9             wint    = 4.65e-008       lint    = -5e-009         ll      = 0             
+wl      = 0               lln     = 1               wln     = 1               lw      = 0             
+ww      = 0               lwn     = 1               wwn     = 1               lwl     = 0             
+wwl     = 0               dlc     = 2.2e-008        dwc     = 4.4e-008        xl      = 0             
+xw      = 0               xpart   = 0               toxref  = 7.5e-009        dlcig   = 0             
+vth0    = '0.56246923+(mcm_NENHT33_vth0*mcmScale)'      lvth0   = -0.0045135163   wvth0   = -0.0043111972   pvth0   = 0.00948778    
+k1      = 0.70234312      lk1     = 0.011484026     wk1     = 0.04806581      pk1     = -0.027334262  
+k2      = -0.003955247    lk2     = -0.0011187781   wk2     = -0.0020034162   pk2     = 0.00123112    
+k3      = 0               k3b     = 0               w0      = 0               dvt0    = 0             
+dvt1    = 0               dvt2    = 0               dvt0w   = 0               dvt1w   = 0             
+dvt2w   = 0               dsub    = 0.15            minv    = -0.41102222     lminv   = 0.11013404    
+wminv   = 7.7465977e-016  pminv   = 3.4726128e-016  voffl   = 0               dvtp0   = 0             
+dvtp1   = 0               lpe0    = 0               lpeb    = 0               lambda  = 0             
+llambda = 0               wlambda = 0               plambda = 0               lc      = 0             
+xn      = 3               lxn     = 0               wxn     = 0               pxn     = 0             
+vbm     = -3              xj      = 1.5e-007        ngate   = 1e+023          ndep    = 2.17e+017     
+nsd     = 1e+020          phin    = 0               cdsc    = 0               cdscb   = 0             
+cdscd   = 0               cit     = 0.00010352858   lcit    = 1.2958907e-006  wcit    = 5.3257591e-006
+pcit    = -5.5280323e-006  voff    = -0.15871212     lvoff   = 0.014168278     wvoff   = -0.0090970027 
+pvoff   = -0.021707677    nfactor = 1               eta0    = 5e-005          etab    = -5e-005       
+u0      = '0.036990301*(((1+mcm_NENHT33_u0*mcmScale)-1)+1)'     lu0     = -0.0026486734   wu0     = -0.0073508041   pu0     = 0.0056186558  
+ua      = -5.8987326e-010  lua     = -2.8757048e-010  wua     = 1.3729881e-010  pua     = 7.6169035e-010
+ub      = 2.2536361e-018  lub     = 2.7365981e-019  wub     = -8.5991546e-019  pub     = -6.1623967e-019
+uc      = 7.1891206e-011  luc     = 1.372487e-011   wuc     = -5.3658921e-011  puc     = 3.3802558e-011
+eu      = 1.67            vsat    = 86900           a0      = 0.75724308      la0     = 0.068208164   
+wa0     = 0.53369608      pa0     = -0.91960086     ags     = 0.215           a1      = 0             
+a2      = 0.99            b0      = 0               b1      = 0               keta    = -0.0037349105 
+lketa   = -0.011980928    wketa   = -0.0012678992   pketa   = 0.0013801956    dwg     = 0             
+dwb     = 0               pclm    = 0.5             pdiblc1 = 0.0001          pdiblc2 = 0.0001        
+pdiblcb = 0.01            drout   = 0.56            pvag    = 0.6             delta   = 0.01          
+pscbe1  = 3e+008          pscbe2  = 1e-006          fprout  = 0               pdits   = 0             
+pditsd  = 0               pditsl  = 0               rdsw    = 270             rdswmin = 0.0001        
+prwg    = 0               prwb    = 0               wr      = 1               alpha0  = 6e-007        
+alpha1  = 2.5             beta0   = 20              agidl   = 3e-008          bgidl   = 2.72e+009     
+cgidl   = 50              egidl   = 0.8             aigbacc = 1               bigbacc = 0             
+cigbacc = 0               nigbacc = 1               aigbinv = 1               bigbinv = 0             
+cigbinv = 0               eigbinv = 1.1             nigbinv = 3               aigc    = 1             
+bigc    = 0               cigc    = 0               aigsd   = 0.43            bigsd   = 0.054         
+cigsd   = 0.075           nigc    = 1               poxedge = 1               pigcd   = 1             
+ntox    = 1               xrcrg1  = 12              xrcrg2  = 1             
+cgso    = 1e-010          cgdo    = 1e-010          cgbo    = 1e-013          cgdl    = 1e-010        
+cgsl    = 1e-010          clc     = 1e-007          cle     = 0.6             ckappas = 0.6           
+ckappad = 0.6             vfbcv   = -1              acde    = 0.4             moin    = 15            
+noff    = 2               voffcv  = -0.05         
+kt1     = -0.3518         kt1l    = 0               kt2     = -0.02052        ute     = -0.73159325   
+lute    = -0.33601631     wute    = -0.7102147      pute    = 1.2383699       ua1     = 5.7717697e-009
+lua1    = -2.3293018e-009  wua1    = -2.6955484e-009  pua1    = 4.2003983e-009  ub1     = -6.6253193e-018
+lub1    = 2.1893776e-018  wub1    = 4.5922915e-019  pub1    = -8.0654898e-019  uc1     = -1.2289231e-010
+luc1    = 3.5815418e-011  wuc1    = 1.2784685e-010  puc1    = -1.4816939e-010  prt     = 0             
+at      = 15000         
+jss     = 2.5e-006        jsws    = 4e-013          jswgs   = 2.5e-012        njs     = 1.15          
+ijthsfwd= 0.1             ijthsrev= 0.1             jsd     = 2.5e-006        jswd    = 4e-013        
+jswgd   = 2.5e-012        njd     = 1.15            ijthdfwd= 0.1             ijthdrev= 0.1           
+pbs     = 0.7911          cjs     = 0.001385        mjs     = 0.3392          pbsws   = 0.234         
+cjsws   = 5.324e-011      mjsws   = 0.03745         pbswgs  = 0.4806          cjswgs  = 4.601e-010    
+mjswgs  = 0.07873         pbd     = 0.7911          cjd     = 0.001385        mjd     = 0.3392        
+pbswd   = 0.234           cjswd   = 5.324e-011      mjswd   = 0.03745         pbswgd  = 0.4806        
+cjswgd  = 4.601e-010      mjswgd  = 0.07873         tpb     = 0.00168         tcj     = 0.0007745     
+tpbsw   = 0.0005562       tcjsw   = 0.0003175       tpbswg  = 0.001801        tcjswg  = 0.0005604     
+xtis    = 1.5             xtid    = 1.5           
+tnoimod = 0
+fnoimod = 0               ef      = 0.89            kf      = 1.0e-23         af      = 2
+saref   = 2.43e-006       sbref   = 2.43e-006       wlod    = 0               kvth0   = 2.24e-009     
+lkvth0  = -2.67e-8        wkvth0  = -2.46e-10       pkvth0  = 0               llodvth = 3.33e-1             
+wlodvth = 3.33e-1         stk2    = 4e-10           lodk2   = 1               lodeta0 = 1             
+ku0     = -2.13e-9        lku0    = 1.26e-7         wku0    = 1.12e-7         pku0    = 0             
+llodku0 = 2.0e-1          wlodku0 = 2.0e-1          kvsat   = 0               steta0  = -4e-10             
+tku0    = 0             
+web     = 1.68e2         wec     = 1.88e3         kvth0we = 1.33e-2         k2we    = 0
+ku0we   = -9.35e-3        scref   = 1e-6
+wpemod  = 1
.model  NENHT33.1  nmos  level = 54
+lmin    = 6.92e-007       lmax    = 9.82e-007       wmin    = 3e-006          wmax    = 0.00010001    
+version = 4.5             binunit = 1               paramchk= 1               mobmod  = 0             
+capmod  = 2               igcmod  = 1               igbmod  = 1               geomod  = 0             
+diomod  = 1               rdsmod  = 0               rbodymod= 0               rgatemod= 0             
+permod  = 1               acnqsmod= 0               trnqsmod= 0             
+noia    = 2.5e+41         noib    = 2.33e+25        noic    = 8.75
+em      = 4.1e+7          
+tnom    = 25              toxe    = 7.75e-009       toxp    = 7.55e-009       toxm    = 7.5e-009      
+epsrox  = 3.9             wint    = 4.65e-008       lint    = -5e-009         ll      = 0             
+wl      = 0               lln     = 1               wln     = 1               lw      = 0             
+ww      = 0               lwn     = 1               wwn     = 1               lwl     = 0             
+wwl     = 0               dlc     = 2.2e-008        dwc     = 4.4e-008        xl      = 0             
+xw      = 0               xpart   = 0               toxref  = 7.5e-009        dlcig   = 0             
+vth0    = '0.56755596+(mcm_NENHT33_vth0*mcmScale)'      lvth0   = -0.0095595463   wvth0   = -0.0029354291   pvth0   = 0.008123018   
+k1      = 0.72100817      lk1     = -0.0070317087   wk1     = 0.094034355     pk1     = -0.072935059  
+k2      = -0.0049461531   lk2     = -0.00013579931  wk2     = -0.0007387733   pk2     = -2.3405792e-005
+k3      = 0               k3b     = 0               w0      = 0               dvt0    = 0             
+dvt1    = 0               dvt2    = 0               dvt0w   = 0               dvt1w   = 0             
+dvt2w   = 0               dsub    = 0.15            minv    = -0.54206897     lminv   = 0.24013241    
+pminv   = 5.4182634e-015  voffl   = 0               dvtp0   = 0               dvtp1   = 0             
+lpe0    = 0               lpeb    = 0               lambda  = 0               llambda = 0             
+wlambda = 0               plambda = 0               lc      = 0               xn      = 3             
+lxn     = 0               wxn     = 0               pxn     = 0               vbm     = -3            
+xj      = 1.5e-007        ngate   = 1e+023          ndep    = 2.17e+017       nsd     = 1e+020        
+phin    = 0               cdsc    = 0               cdscb   = 0               cdscd   = 0             
+cit     = 0.00010485885   lcit    = -2.3743775e-008  wcit    = -1.0741721e-006  pcit    = 8.2069947e-007
+voff    = -0.15015906     lvoff   = 0.0056836371    wvoff   = -0.065738053    pvoff   = 0.034480245   
+nfactor = 1               eta0    = -0.0036367186   leta0   = 0.0036572248    weta0   = 7.9369093e-018
+peta0   = -1.3228182e-017  etab    = 0.0036367186    letab   = -0.0036572248   wetab   = -7.9369093e-018
+petab   = 1.3228182e-017  u0      = '0.031344825*(((1+mcm_NENHT33_u0*mcmScale)-1)+1)'     lu0     = 0.002951639     wu0     = 0.0042887359  
+pu0     = -0.0059277679   ua      = -7.472366e-010  lua     = -1.3146605e-010  wua     = 1.4867542e-009
+pua     = -5.7696941e-010  ub      = 2.1787034e-018  lub     = 3.4799303e-019  wub     = -8.8356756e-019
+pub     = -5.9277679e-019  uc      = 3.4608673e-011  luc     = 5.0709143e-011  wuc     = 1.2711654e-010
+puc     = -1.455267e-010  eu      = 1.67            vsat    = 92113.541       lvsat   = -5171.8327    
+wvsat   = -3.5509131e-010  pvsat   = 3.5509131e-010  a0      = 0.65615273      la0     = 0.1684898     
+wa0     = -0.3709663      pa0     = -0.02217578     ags     = 0.215           a1      = 0             
+a2      = 0.99            b0      = 0               b1      = 0               keta    = -0.020714855  
+lketa   = 0.004863177     wketa   = 0.0081088634    pketa   = -0.0079215529   dwg     = 0             
+dwb     = 0               pclm    = 0.5             pdiblc1 = 0.0001          pdiblc2 = -0.00019791667
+lpdiblc2= 0.00029553334   wpdiblc2= 6.6140911e-019  ppdiblc2= 9.9211367e-019  pdiblcb = 0.01          
+drout   = 0.56            pvag    = 0.6             delta   = 0.01            pscbe1  = 3e+008        
+pscbe2  = 1e-006          fprout  = 0               pdits   = 0               pditsd  = 0             
+pditsl  = 0               rdsw    = 270             rdswmin = 0.0001          prwg    = 0             
+prwb    = 0               wr      = 1               alpha0  = 6e-007          alpha1  = 2.5           
+beta0   = 20              agidl   = 3e-008          bgidl   = 2.72e+009       cgidl   = 50            
+egidl   = 0.8             aigbacc = 1               bigbacc = 0               cigbacc = 0             
+nigbacc = 1               aigbinv = 1               bigbinv = 0               cigbinv = 0             
+eigbinv = 1.1             nigbinv = 3               aigc    = 1               bigc    = 0             
+cigc    = 0               aigsd   = 0.43            bigsd   = 0.054           cigsd   = 0.075         
+nigc    = 1               poxedge = 1               pigcd   = 1               ntox    = 1             
+xrcrg1  = 12              xrcrg2  = 1             
+cgso    = 1e-010          cgdo    = 1e-010          cgbo    = 1e-013          cgdl    = 1e-010        
+cgsl    = 1e-010          clc     = 1e-007          cle     = 0.6             ckappas = 0.6           
+ckappad = 0.6             vfbcv   = -1              acde    = -0.046874996    lacde   = 0.4433        
+wacde   = 2.7091317e-015  pacde   = -1.3545659e-015  moin    = 15              noff    = 0.51041676    
+lnoff   = 1.4776666       wnoff   = -2.1673054e-014  pnoff   = 2.1673054e-014  voffcv  = 0.024479167   
+lvoffcv = -0.073883334    wvoffcv = -6.7728293e-016  pvoffcv = 1.6932073e-016
+kt1     = -0.3518         kt1l    = 0               kt2     = -0.02052        ute     = -0.87281384   
+lute    = -0.19592548     wute    = 0.75815552      pute    = -0.2182534      ua1     = 3.5202276e-009
+lua1    = -9.5772056e-011  wua1    = 3.297602e-009   pua1    = -1.7448069e-009  ub1     = -3.7764937e-018
+lub1    = -6.3665738e-019  wub1    = -2.299622e-018  pub1    = 1.9302314e-018  uc1     = -5.7012932e-011
+luc1    = -2.9536923e-011  wuc1    = -9.4844907e-011  puc1    = 7.2740835e-011  prt     = 0             
+at      = 15000         
+jss     = 2.5e-006        jsws    = 4e-013          jswgs   = 2.5e-012        njs     = 1.15          
+ijthsfwd= 0.1             ijthsrev= 0.1             jsd     = 2.5e-006        jswd    = 4e-013        
+jswgd   = 2.5e-012        njd     = 1.15            ijthdfwd= 0.1             ijthdrev= 0.1           
+pbs     = 0.7911          cjs     = 0.001385        mjs     = 0.3392          pbsws   = 0.234         
+cjsws   = 5.324e-011      mjsws   = 0.03745         pbswgs  = 0.4806          cjswgs  = 4.601e-010    
+mjswgs  = 0.07873         pbd     = 0.7911          cjd     = 0.001385        mjd     = 0.3392        
+pbswd   = 0.234           cjswd   = 5.324e-011      mjswd   = 0.03745         pbswgd  = 0.4806        
+cjswgd  = 4.601e-010      mjswgd  = 0.07873         tpb     = 0.00168         tcj     = 0.0007745     
+tpbsw   = 0.0005562       tcjsw   = 0.0003175       tpbswg  = 0.001801        tcjswg  = 0.0005604     
+xtis    = 1.5             xtid    = 1.5           
+tnoimod = 0
+fnoimod = 0               ef      = 0.89            kf      = 1.0e-23         af      = 2
+saref   = 2.43e-006       sbref   = 2.43e-006       wlod    = 0               kvth0   = 2.24e-009     
+lkvth0  = -2.67e-8        wkvth0  = -2.46e-10       pkvth0  = 0               llodvth = 3.33e-1             
+wlodvth = 3.33e-1         stk2    = 4e-10           lodk2   = 1               lodeta0 = 1             
+ku0     = -2.13e-9        lku0    = 1.26e-7         wku0    = 1.12e-7         pku0    = 0             
+llodku0 = 2.0e-1          wlodku0 = 2.0e-1          kvsat   = 0               steta0  = -4e-10             
+tku0    = 0             
+web     = 1.68e2         wec     = 1.88e3         kvth0we = 1.33e-2         k2we    = 0
+ku0we   = -9.35e-3        scref   = 1e-6
+wpemod  = 1
.model  NENHT33.2  nmos  level = 54
+lmin    = 4.204e-007      lmax    = 6.92e-007       wmin    = 3e-006          wmax    = 0.00010001    
+version = 4.5             binunit = 1               paramchk= 1               mobmod  = 0             
+capmod  = 2               igcmod  = 1               igbmod  = 1               geomod  = 0             
+diomod  = 1               rdsmod  = 0               rbodymod= 0               rgatemod= 0             
+permod  = 1               acnqsmod= 0               trnqsmod= 0             
+noia    = 2.5e+41         noib    = 2.33e+25        noic    = 8.75
+em      = 4.1e+7          
+tnom    = 25              toxe    = 7.75e-009       toxp    = 7.55e-009       toxm    = 7.5e-009      
+epsrox  = 3.9             wint    = 4.65e-008       lint    = -5e-009         ll      = 0             
+wl      = 0               lln     = 1               wln     = 1               lw      = 0             
+ww      = 0               lwn     = 1               wwn     = 1               lwl     = 0             
+wwl     = 0               dlc     = 2.2e-008        dwc     = 4.4e-008        xl      = 0             
+xw      = 0               xpart   = 0               toxref  = 7.5e-009        dlcig   = 0             
+vth0    = '0.57967669+(mcm_NENHT33_vth0*mcmScale)'      lvth0   = -0.018068302    wvth0   = -0.039286831    pvth0   = 0.033641702   
+k1      = 0.79103643      lk1     = -0.056191543    wk1     = -0.080862325    pk1     = 0.04984241    
+k2      = -0.0049379477   lk2     = -0.00014155948  wk2     = -0.00073735869  pk2     = -2.4398847e-005
+k3      = 0               k3b     = 0               w0      = 0               dvt0    = 0             
+dvt1    = 0               dvt2    = 0               dvt0w   = 0               dvt1w   = 0             
+dvt2w   = 0               dsub    = 0.15            minv    = -0.35846834     lminv   = 0.11124477    
+wminv   = -1.0174798e-015  pminv   = 1.3808655e-015  voffl   = 0               dvtp0   = 0             
+dvtp1   = 0               lpe0    = 0               lpeb    = 0               lambda  = 0             
+llambda = 0               wlambda = 0               plambda = 0               lc      = 0             
+xn      = 3               lxn     = 0               wxn     = 0               pxn     = 0             
+vbm     = -3              xj      = 1.5e-007        ngate   = 1e+023          ndep    = 2.17e+017     
+nsd     = 1e+020          phin    = 0               cdsc    = 0               cdscb   = 0             
+cdscd   = 0               cit     = 0.00010486027   lcit    = -2.4740124e-008  wcit    = -1.1238234e-006
+pcit    = 8.5555468e-007  voff    = -0.15379298     lvoff   = 0.0082346541    wvoff   = -0.035222489  
+pvoff   = 0.013058319     nfactor = 1               eta0    = -0.0038577011   leta0   = 0.0038123545  
+weta0   = 2.2711604e-017  peta0   = 1.3626962e-017  etab    = 0.0038577011    letab   = -0.0038123545 
+wetab   = -2.2711604e-017  petab   = -1.3626962e-017  u0      = '0.031145696*(((1+mcm_NENHT33_u0*mcmScale)-1)+1)'     lu0     = 0.003091427   
+wu0     = 0.0047766942    pu0     = -0.0062703146   ua      = -7.3967589e-010  lua     = -1.3677367e-010
+wua     = 1.522861e-009   pua     = -6.0231635e-010  ub      = 2.2287563e-018  lub     = 3.128559e-019 
+wub     = -2.8232987e-018  pub     = 7.6891449e-019  uc      = 9.2555492e-011  luc     = 1.0030475e-011
+wuc     = -1.387991e-010  puc     = 4.1146079e-011  eu      = 1.67            vsat    = 92426.042     
+lvsat   = -5391.2086      wvsat   = -7.6207496e-011  pvsat   = -4.5724498e-010  a0      = 1.2671442     
+la0     = -0.26042623     wa0     = 0.070488107     pa0     = -0.33207678     ags     = 0.215         
+a1      = 0               a2      = 0.99            b0      = 0               b1      = 0             
+keta    = -0.021008699    lketa   = 0.0050694556    wketa   = 0.0085875001    pketa   = -0.0082575558 
+dwg     = 0               dwb     = 0               pclm    = 0.5             pdiblc1 = 0.0001        
+pdiblc2 = -0.0002157738   lpdiblc2= 0.00030806905   wpdiblc2= -5.6779009e-019  pdiblcb = 0.01          
+drout   = 0.56            pvag    = 0.6             delta   = 0.01            pscbe1  = 3e+008        
+pscbe2  = 1e-006          fprout  = 0               pdits   = 0               pditsd  = 0             
+pditsl  = 0               rdsw    = 270             rdswmin = 0.0001          prwg    = 0             
+prwb    = 0               wr      = 1               alpha0  = 6e-007          alpha1  = 2.5           
+beta0   = 20              agidl   = 3e-008          bgidl   = 2.72e+009       cgidl   = 50            
+egidl   = 0.8             aigbacc = 1               bigbacc = 0               cigbacc = 0             
+nigbacc = 1               aigbinv = 1               bigbinv = 0               cigbinv = 0             
+eigbinv = 1.1             nigbinv = 3               aigc    = 1               bigc    = 0             
+cigc    = 0               aigsd   = 0.43            bigsd   = 0.054           cigsd   = 0.075         
+nigc    = 1               poxedge = 1               pigcd   = 1               ntox    = 1             
+xrcrg1  = 12              xrcrg2  = 1             
+cgso    = 1e-010          cgdo    = 1e-010          cgbo    = 1e-013          cgdl    = 1e-010        
+cgsl    = 1e-010          clc     = 1e-007          cle     = 0.6             ckappas = 0.6           
+ckappad = 0.6             vfbcv   = -1              acde    = -0.073660718    lacde   = 0.46210357    
+wacde   = 3.4885023e-015  pacde   = -5.8141705e-016  moin    = 15              noff    = 0.42113085    
+lnoff   = 1.5403453       wnoff   = 3.2559355e-014  pnoff   = -2.3256682e-015  voffcv  = 0.028943452   
+lvoffcv = -0.077017262    wvoffcv = 2.9070853e-016  pvoffcv = 8.7212558e-016
+kt1     = -0.3518         kt1l    = 0               kt2     = -0.02052        ute     = -0.86097497   
+lute    = -0.20423637     wute    = 0.77134213      pute    = -0.2275104      ua1     = 3.5260143e-009
+lua1    = -9.9834374e-011  wua1    = 3.4030307e-009  pua1    = -1.8188178e-009  ub1     = -3.7380246e-018
+lub1    = -6.6366272e-019  wub1    = -2.4162531e-018  pub1    = 2.0121064e-018  uc1     = -5.5228212e-011
+luc1    = -3.0789796e-011  wuc1    = -9.9240177e-011  puc1    = 7.5826315e-011  prt     = 0             
+at      = 15000         
+jss     = 2.5e-006        jsws    = 4e-013          jswgs   = 2.5e-012        njs     = 1.15          
+ijthsfwd= 0.1             ijthsrev= 0.1             jsd     = 2.5e-006        jswd    = 4e-013        
+jswgd   = 2.5e-012        njd     = 1.15            ijthdfwd= 0.1             ijthdrev= 0.1           
+pbs     = 0.7911          cjs     = 0.001385        mjs     = 0.3392          pbsws   = 0.234         
+cjsws   = 5.324e-011      mjsws   = 0.03745         pbswgs  = 0.4806          cjswgs  = 4.601e-010    
+mjswgs  = 0.07873         pbd     = 0.7911          cjd     = 0.001385        mjd     = 0.3392        
+pbswd   = 0.234           cjswd   = 5.324e-011      mjswd   = 0.03745         pbswgd  = 0.4806        
+cjswgd  = 4.601e-010      mjswgd  = 0.07873         tpb     = 0.00168         tcj     = 0.0007745     
+tpbsw   = 0.0005562       tcjsw   = 0.0003175       tpbswg  = 0.001801        tcjswg  = 0.0005604     
+xtis    = 1.5             xtid    = 1.5           
+tnoimod = 0
+fnoimod = 0               ef      = 0.89            kf      = 1.0e-23         af      = 2
+saref   = 2.43e-006       sbref   = 2.43e-006       wlod    = 0               kvth0   = 2.24e-009     
+lkvth0  = -2.67e-8        wkvth0  = -2.46e-10       pkvth0  = 0               llodvth = 3.33e-1             
+wlodvth = 3.33e-1         stk2    = 4e-10           lodk2   = 1               lodeta0 = 1             
+ku0     = -2.13e-9        lku0    = 1.26e-7         wku0    = 1.12e-7         pku0    = 0             
+llodku0 = 2.0e-1          wlodku0 = 2.0e-1          kvsat   = 0               steta0  = -4e-10             
+tku0    = 0             
+web     = 1.68e2         wec     = 1.88e3         kvth0we = 1.33e-2         k2we    = 0
+ku0we   = -9.35e-3        scref   = 1e-6
+wpemod  = 1
.model  NENHT33.3  nmos  level = 54
+lmin    = 3.574e-007      lmax    = 4.204e-007      wmin    = 3e-006          wmax    = 0.00010001    
+version = 4.5             binunit = 1               paramchk= 1               mobmod  = 0             
+capmod  = 2               igcmod  = 1               igbmod  = 1               geomod  = 0             
+diomod  = 1               rdsmod  = 0               rbodymod= 0               rgatemod= 0             
+permod  = 1               acnqsmod= 0               trnqsmod= 0             
+noia    = 2.5e+41         noib    = 2.33e+25        noic    = 8.75
+em      = 4.1e+7          
+tnom    = 25              toxe    = 7.75e-009       toxp    = 7.55e-009       toxm    = 7.5e-009      
+epsrox  = 3.9             wint    = 4.65e-008       lint    = -5e-009         ll      = 0             
+wl      = 0               lln     = 1               wln     = 1               lw      = 0             
+ww      = 0               lwn     = 1               wwn     = 1               lwl     = 0             
+wwl     = 0               dlc     = 2.2e-008        dwc     = 4.4e-008        xl      = 0             
+xw      = 0               xpart   = 0               toxref  = 7.5e-009        dlcig   = 0             
+vth0    = '0.59816067+(mcm_NENHT33_vth0*mcmScale)'      lvth0   = -0.026023804    wvth0   = 0.10203398      pvth0   = -0.027182773  
+k1      = 0.80616891      lk1     = -0.062704563    wk1     = 0.33158409      pk1     = -0.12767453   
+k2      = -0.0026343964   lk2     = -0.0011330079   wk2     = -0.0096163386   pk2     = 0.0037971141  
+k3      = 0               k3b     = 0               w0      = 0               dvt0    = 0             
+dvt1    = 0               dvt2    = 0               dvt0w   = 0               dvt1w   = 0             
+dvt2w   = 0               dsub    = 0.15            minv    = -0.1            voffl   = 0             
+dvtp0   = 0               dvtp1   = 0               lpe0    = 0               lpeb    = 0             
+lambda  = 0               llambda = 0               wlambda = 0               plambda = 0             
+lc      = 0               xn      = 3               lxn     = 0               wxn     = 0             
+pxn     = 0               vbm     = -3              xj      = 1.5e-007        ngate   = 1e+023        
+ndep    = 2.17e+017       nsd     = 1e+020          phin    = 0               cdsc    = 0             
+cdscb   = 0               cdscd   = 0               cit     = 0.00012486851   lcit    = -8.6362867e-006
+wcit    = -7.2555132e-005  pcit    = 3.159959e-005   voff    = -0.13315319     lvoff   = -0.00064871141
+wvoff   = -0.033695694    pvoff   = 0.012401187     nfactor = 1               eta0    = -0.0066634921 
+leta0   = 0.005019967     weta0   = -9.2495435e-017  peta0   = -1.6186701e-016  etab    = -0.005        
+u0      = '0.04118132*(((1+mcm_NENHT33_u0*mcmScale)-1)+1)'      lu0     = -0.0012279054   wu0     = -0.052499736    pu0     = 0.018381461   
+ua      = -7.1803362e-010  lua     = -1.460885e-010  wua     = -2.1415288e-009  pua     = 9.7483702e-010
+ub      = 2.095786e-018   lub     = 3.7008631e-019  wub     = 2.802121e-018   pub     = -1.6522661e-018
+uc      = 3.8079962e-011  luc     = 3.3476743e-011  wuc     = 3.9227669e-010  puc     = -1.8742894e-010
+eu      = 1.67            vsat    = 96407.174       lvsat   = -7104.6876      wvsat   = -47986.354    
+pvsat   = 20653.327       a0      = 3.0765051       la0     = -1.0391752      wa0     = -6.3466603    
+pa0     = 2.4298639       ags     = 0.215           a1      = 0               a2      = 0.99          
+b0      = 0               b1      = 0               keta    = 0.014851683     lketa   = -0.010364853  
+wketa   = -0.12149473     pketa   = 0.047729838     dwg     = 0               dwb     = 0             
+pclm    = 0.5             pdiblc1 = 0.0001          pdiblc2 = 0.0005          pdiblcb = 0.01          
+drout   = 0.56            pvag    = 0.6             delta   = 0.01            pscbe1  = 3e+008        
+pscbe2  = 1e-006          fprout  = 0               pdits   = 0               pditsd  = 0             
+pditsl  = 0               rdsw    = 270             rdswmin = 0.0001          prwg    = 0             
+prwb    = 0               wr      = 1               alpha0  = 6e-007          alpha1  = 2.5           
+beta0   = 20              agidl   = 3e-008          bgidl   = 2.72e+009       cgidl   = 50            
+egidl   = 0.8             aigbacc = 1               bigbacc = 0               cigbacc = 0             
+nigbacc = 1               aigbinv = 1               bigbinv = 0               cigbinv = 0             
+eigbinv = 1.1             nigbinv = 3               aigc    = 1               bigc    = 0             
+cigc    = 0               aigsd   = 0.43            bigsd   = 0.054           cigsd   = 0.075         
+nigc    = 1               poxedge = 1               pigcd   = 1               ntox    = 1             
+xrcrg1  = 12              xrcrg2  = 1             
+cgso    = 1e-010          cgdo    = 1e-010          cgbo    = 1e-013          cgdl    = 1e-010        
+cgsl    = 1e-010          clc     = 1e-007          cle     = 0.6             ckappas = 0.6           
+ckappad = 0.6             vfbcv   = -1              acde    = 1               moin    = 15            
+noff    = 4               voffcv  = -0.15         
+kt1     = -0.3518         kt1l    = 0               kt2     = -0.02052        ute     = -1.8224635    