*simulator lang=spice

.SUBCKT NENHT33_S D G S B l=0 wpf=0 as=0 ad=0 ps=0 pd=0 nrs=0 nrd=0 simM=1 sa=0 sb=0 sc=0 sca=0 scb=0 scc=0  mcm_NENHT33_vth0=0 mcm_NENHT33_u0=0
** Pelgrom Scaling parameter **
.param mcmScale='1/sqrt(l*wpf)*1/sqrt(simM)'

.flat M0
M0 D G S B NENHT33  l=l w=wpf as=as ad=ad ps=ps pd=pd nrs=nrs nrd=nrd
+ m=simM sa=sa sb=sb sc=sc sca=sca scb=scb scc=scc


******************* GE33Mvt Fast NMOS and Slow PMOS ******************
*
* v1
*  Date 2005. 2. 7
*
.model  NENHT33.0  nmos  level = 54
+lmin    = 9.82e-007       lmax    = 1.001e-005      wmin    = 3e-006          wmax    = 0.00010001    
+version = 4.5             binunit = 1               paramchk= 1               mobmod  = 0             
+capmod  = 2               igcmod  = 1               igbmod  = 1               geomod  = 0             
+diomod  = 1               rdsmod  = 0               rbodymod= 0               rgatemod= 0             
+permod  = 1               acnqsmod= 0               trnqsmod= 0             
+noia    = 2.5e+41         noib    = 2.33e+25        noic    = 8.75
+em      = 4.1e+7          
+tnom    = 25              toxe    = 7.33e-009       toxp    = 7.13e-009       toxm    = 7.5e-009      
+epsrox  = 3.9             wint    = 2.64e-008       lint    = 1.85e-008       ll      = 0             
+wl      = 0               lln     = 1               wln     = 1               lw      = 0             
+ww      = 0               lwn     = 1               wwn     = 1               lwl     = 0             
+wwl     = 0               dlc     = 3.86e-008       dwc     = 2.9e-008        xl      = 0             
+xw      = 0               xpart   = 0               toxref  = 7.5e-009        dlcig   = 0             
+vth0    = '0.52730458+(mcm_NENHT33_vth0*mcmScale)'      lvth0   = -0.0028081288   wvth0   = -0.0039030099   pvth0   = 0.0047838787  
+k1      = 0.70233066      lk1     = 0.010924641     wk1     = 0.048796296     pk1     = -0.026381721  
+k2      = -0.0039577636   lk2     = -0.0010623877   wk2     = -0.0020334203   pk2     = 0.001188218   
+k3      = 0               k3b     = 0               w0      = 0               dvt0    = 0             
+dvt1    = 0               dvt2    = 0               dvt0w   = 0               dvt1w   = 0             
+dvt2w   = 0               dsub    = 0.15            minv    = -0.4105         lminv   = 0.1044225     
+wminv   = 5.8060573e-017  pminv   = -9.953241e-017  voffl   = 0               dvtp0   = 0             
+dvtp1   = 0               lpe0    = 0               lpeb    = 0               lambda  = 0             
+llambda = 0               wlambda = 0               plambda = 0               lc      = 0             
+xn      = 3               lxn     = 0               wxn     = 0               pxn     = 0             
+vbm     = -3              xj      = 1.5e-007        ngate   = 1e+023          ndep    = 2.17e+017     
+nsd     = 1e+020          phin    = 0               cdsc    = 0               cdscb   = 0             
+cdscd   = 0               cit     = 0.00010352732   lcit    = 1.236002e-006   wcit    = 5.3946342e-006
+pcit    = -5.335392e-006  voff    = -0.1586321      lvoff   = 0.013462241     wvoff   = -0.0093650041 
+pvoff   = -0.02095121     nfactor = 1               eta0    = 5e-005          etab    = -5e-005       
+u0      = '0.036987965*(((1+mcm_NENHT33_u0*mcmScale)-1)+1)'     lu0     = -0.0025187495   wu0     = -0.0074555762   pu0     = 0.0054228575  
+ua      = -5.9143352e-010  lua     = -2.7366517e-010  wua     = 1.434388e-010   pua     = 7.3514705e-010
+ub      = 2.2561381e-018  lub     = 2.602834e-019   wub     = -8.7831898e-019  pub     = -5.9476501e-019
+uc      = 7.2030961e-011  luc     = 1.2968363e-011  wuc     = -5.4458541e-011  puc     = 3.262461e-011 
+eu      = 1.67            vsat    = 86900           a0      = 0.75682763      la0     = 0.06588795    
+wa0     = 0.53883324      pa0     = -0.88755471     ags     = 0.185           a1      = 0             
+a2      = 0.99            b0      = 0               b1      = 0               keta    = -0.0037899598 
+lketa   = -0.011361424    wketa   = -0.0012839866   pketa   = 0.0013320987    dwg     = 0             
+dwb     = 0               pclm    = 0.5             pdiblc1 = 0.0001          pdiblc2 = 0.0001        
+pdiblcb = 0.01            drout   = 0.56            pvag    = 0.6             delta   = 0.01          
+pscbe1  = 3e+008          pscbe2  = 1e-006          fprout  = 0               pdits   = 0             
+pditsd  = 0               pditsl  = 0               rdsw    = 270             rdswmin = 0.0001        
+prwg    = 0               prwb    = 0               wr      = 1               alpha0  = 6e-007        
+alpha1  = 2.5             beta0   = 20              agidl   = 3e-008          bgidl   = 2.72e+009     
+cgidl   = 50              egidl   = 0.8             aigbacc = 1               bigbacc = 0             
+cigbacc = 0               nigbacc = 1               aigbinv = 1               bigbinv = 0             
+cigbinv = 0               eigbinv = 1.1             nigbinv = 3               aigc    = 1             
+bigc    = 0               cigc    = 0               aigsd   = 0.43            bigsd   = 0.054         
+cigsd   = 0.075           nigc    = 1               poxedge = 1               pigcd   = 1             
+ntox    = 1               xrcrg1  = 12              xrcrg2  = 1             
+cgso    = 1e-010          cgdo    = 1e-010          cgbo    = 1e-013          cgdl    = 1e-010        
+cgsl    = 1e-010          clc     = 1e-007          cle     = 0.6             ckappas = 0.6           
+ckappad = 0.6             vfbcv   = -1              acde    = 0.4             moin    = 15            
+noff    = 2               voffcv  = -0.05         
+kt1     = -0.3518         kt1l    = 0               kt2     = -0.02052        ute     = -0.73220338   
+lute    = -0.32022946     wute    = -0.71698043     pute    = 1.1952153       ua1     = 5.7644596e-009
+lua1    = -2.2140635e-009  wua1    = -2.723639e-009  pua1    = 4.0540233e-009  ub1     = -6.6155737e-018
+lub1    = 2.0769041e-018  wub1    = 4.6357585e-019  pub1    = -7.7844244e-019  uc1     = -1.2289996e-010
+luc1    = 3.4154129e-011  wuc1    = 1.2942557e-010  puc1    = -1.43006e-010   prt     = 0             
+at      = 15000         
+jss     = 2.5e-006        jsws    = 4e-013          jswgs   = 2.5e-012        njs     = 1.15          
+ijthsfwd= 0.1             ijthsrev= 0.1             jsd     = 2.5e-006        jswd    = 4e-013        
+jswgd   = 2.5e-012        njd     = 1.15            ijthdfwd= 0.1             ijthdrev= 0.1           
+pbs     = 0.7911          cjs     = 0.001385        mjs     = 0.3392          pbsws   = 0.234         
+cjsws   = 5.324e-011      mjsws   = 0.03745         pbswgs  = 0.4806          cjswgs  = 4.601e-010    
+mjswgs  = 0.07873         pbd     = 0.7911          cjd     = 0.001385        mjd     = 0.3392        
+pbswd   = 0.234           cjswd   = 5.324e-011      mjswd   = 0.03745         pbswgd  = 0.4806        
+cjswgd  = 4.601e-010      mjswgd  = 0.07873         tpb     = 0.00168         tcj     = 0.0007745     
+tpbsw   = 0.0005562       tcjsw   = 0.0003175       tpbswg  = 0.001801        tcjswg  = 0.0005604     
+xtis    = 1.5             xtid    = 1.5           
+tnoimod = 0
+fnoimod = 0               ef      = 0.89            kf      = 1.0e-23         af      = 2
+saref   = 2.43e-006       sbref   = 2.43e-006       wlod    = 0               kvth0   = 2.24e-009     
+lkvth0  = -2.67e-8        wkvth0  = -2.46e-10       pkvth0  = 0               llodvth = 3.33e-1             
+wlodvth = 3.33e-1         stk2    = 4e-10           lodk2   = 1               lodeta0 = 1             
+ku0     = -2.13e-9        lku0    = 1.26e-7         wku0    = 1.12e-7         pku0    = 0             
+llodku0 = 2.0e-1          wlodku0 = 2.0e-1          kvsat   = 0               steta0  = -4e-10             
+tku0    = 0             
+web     = 1.68e2         wec     = 1.88e3         kvth0we = 1.33e-2         k2we    = 0
+ku0we   = -9.35e-3        scref   = 1e-6
+wpemod  = 1
.model  NENHT33.1  nmos  level = 54
+lmin    = 6.92e-007       lmax    = 9.82e-007       wmin    = 3e-006          wmax    = 0.00010001    
+version = 4.5             binunit = 1               paramchk= 1               mobmod  = 0             
+capmod  = 2               igcmod  = 1               igbmod  = 1               geomod  = 0             
+diomod  = 1               rdsmod  = 0               rbodymod= 0               rgatemod= 0             
+permod  = 1               acnqsmod= 0               trnqsmod= 0             
+noia    = 2.5e+41         noib    = 2.33e+25        noic    = 8.75
+em      = 4.1e+7          
+tnom    = 25              toxe    = 7.33e-009       toxp    = 7.13e-009       toxm    = 7.5e-009      
+epsrox  = 3.9             wint    = 2.64e-008       lint    = 1.85e-008       ll      = 0             
+wl      = 0               lln     = 1               wln     = 1               lw      = 0             
+ww      = 0               lwn     = 1               wwn     = 1               lwl     = 0             
+wwl     = 0               dlc     = 3.86e-008       dwc     = 2.9e-008        xl      = 0             
+xw      = 0               xpart   = 0               toxref  = 7.5e-009        dlcig   = 0             
+vth0    = '0.53238419+(mcm_NENHT33_vth0*mcmScale)'      lvth0   = -0.0076083577   wvth0   = 0.0028411465    pvth0   = -0.001589349  
+k1      = 0.7204092       lk1     = -0.0061595848   wk1     = 0.090710751     pk1     = -0.065990881  
+k2      = -0.004954285    lk2     = -0.00012067503  wk2     = -0.00075363681  pk2     = -2.1177316e-005
+k3      = 0               k3b     = 0               w0      = 0               dvt0    = 0             
+dvt1    = 0               dvt2    = 0               dvt0w   = 0               dvt1w   = 0             
+dvt2w   = 0               dsub    = 0.15            minv    = -0.52586207     lminv   = 0.21343966    
+wminv   = -1.1089074e-015  pminv   = 1.1089074e-015  voffl   = 0               dvtp0   = 0             
+dvtp1   = 0               lpe0    = 0               lpeb    = 0               lambda  = 0             
+llambda = 0               wlambda = 0               plambda = 0               lc      = 0             
+xn      = 3               lxn     = 0               wxn     = 0               pxn     = 0             
+vbm     = -3              xj      = 1.5e-007        ngate   = 1e+023          ndep    = 2.17e+017     
+nsd     = 1e+020          phin    = 0               cdsc    = 0               cdscb   = 0             
+cdscd   = 0               cit     = 0.00010485867   lcit    = -2.2122686e-008  wcit    = -1.0370614e-006
+pcit    = 7.4256032e-007  voff    = -0.14968695     lvoff   = 0.0050090732    wvoff   = -0.064548683  
+pvoff   = 0.031197366     nfactor = 1               eta0    = -0.003389887    leta0   = 0.0032506932  
+weta0   = -8.6633395e-018  peta0   = 1.9492514e-017  etab    = 0.003389887     letab   = -0.0032506932 
+wetab   = 8.6633395e-018  petab   = -1.9492514e-017  u0      = '0.031538607*(((1+mcm_NENHT33_u0*mcmScale)-1)+1)'     lu0     = 0.0026308938  
+wu0     = 0.0039584344    pu0     = -0.0053633826   ua      = -7.5813037e-010  lua     = -1.1613664e-010
+wua     = 1.4737911e-009  pua     = -5.2203591e-010  ub      = 2.2034792e-018  lub     = 3.100461e-019 
+wub     = -9.4014623e-019  pub     = -5.3633826e-019  uc      = 3.7867383e-011  luc     = 4.5252944e-011
+wuc     = 1.1939929e-010  puc     = -1.3167104e-010  eu      = 1.67            vsat    = 91764.486     
+lvsat   = -4596.9395      wvsat   = 8.720803e-010   pvsat   = -1.4534672e-010  a0      = 0.66804426    
+la0     = 0.14978824      wa0     = -0.37914591     pa0     = -0.020064414    ags     = 0.185         
+a1      = 0               a2      = 0.99            b0      = 0               b1      = 0             
+keta    = -0.020397204    lketa   = 0.0043324218    wketa   = 0.0077101268    pketa   = -0.0071673385 
+dwg     = 0               dwb     = 0               pclm    = 0.5             pdiblc1 = 0.0001        
+pdiblc2 = -0.00017797068  lpdiblc2= 0.0002626823    ppdiblc2= 2.7072936e-018  pdiblcb = 0.01          
+drout   = 0.56            pvag    = 0.6             delta   = 0.01            pscbe1  = 3e+008        
+pscbe2  = 1e-006          fprout  = 0               pdits   = 0               pditsd  = 0             
+pditsl  = 0               rdsw    = 270             rdswmin = 0.0001          prwg    = 0             
+prwb    = 0               wr      = 1               alpha0  = 6e-007          alpha1  = 2.5           
+beta0   = 20              agidl   = 3e-008          bgidl   = 2.72e+009       cgidl   = 50            
+egidl   = 0.8             aigbacc = 1               bigbacc = 0               cigbacc = 0             
+nigbacc = 1               aigbinv = 1               bigbinv = 0               cigbinv = 0             
+eigbinv = 1.1             nigbinv = 3               aigc    = 1               bigc    = 0             
+cigc    = 0               aigsd   = 0.43            bigsd   = 0.054           cigsd   = 0.075         
+nigc    = 1               poxedge = 1               pigcd   = 1               ntox    = 1             
+xrcrg1  = 12              xrcrg2  = 1             
+cgso    = 1e-010          cgdo    = 1e-010          cgbo    = 1e-013          cgdl    = 1e-010        
+cgsl    = 1e-010          clc     = 1e-007          cle     = 0.6             ckappas = 0.6           
+ckappad = 0.6             vfbcv   = -1              acde    = -0.016956015    lacde   = 0.39402343    
+wacde   = -1.1089074e-015  pacde   = -7.2078984e-015  moin    = 15              noff    = 0.61014669    
+lnoff   = 1.3134114       wnoff   = -2.2178149e-014  pnoff   = -4.4356298e-015  voffcv  = 0.01949267    
+lvoffcv = -0.065670573    wvoffcv = -5.5445372e-016  pvoffcv = 4.1584029e-016
+kt1     = -0.3518         kt1l    = 0               kt2     = -0.02052        ute     = -0.88707486   
+lute    = -0.17387592     wute    = 0.75676421      pute    = -0.1974734      ua1     = 3.5093252e-009
+lua1    = -8.2961414e-011  wua1    = 3.2368968e-009  pua1    = -1.5786831e-009  ub1     = -3.8164346e-018
+lub1    = -5.6828232e-019  wub1    = -2.2082714e-018  pub1    = 1.7464533e-018  uc1     = -5.8880887e-011
+luc1    = -2.6343892e-011  wuc1    = -9.1549191e-011  puc1    = 6.581515e-011   prt     = 0             
+at      = 15000         
+jss     = 2.5e-006        jsws    = 4e-013          jswgs   = 2.5e-012        njs     = 1.15          
+ijthsfwd= 0.1             ijthsrev= 0.1             jsd     = 2.5e-006        jswd    = 4e-013        
+jswgd   = 2.5e-012        njd     = 1.15            ijthdfwd= 0.1             ijthdrev= 0.1           
+pbs     = 0.7911          cjs     = 0.001385        mjs     = 0.3392          pbsws   = 0.234         
+cjsws   = 5.324e-011      mjsws   = 0.03745         pbswgs  = 0.4806          cjswgs  = 4.601e-010    
+mjswgs  = 0.07873         pbd     = 0.7911          cjd     = 0.001385        mjd     = 0.3392        
+pbswd   = 0.234           cjswd   = 5.324e-011      mjswd   = 0.03745         pbswgd  = 0.4806        
+cjswgd  = 4.601e-010      mjswgd  = 0.07873         tpb     = 0.00168         tcj     = 0.0007745     
+tpbsw   = 0.0005562       tcjsw   = 0.0003175       tpbswg  = 0.001801        tcjswg  = 0.0005604     
+xtis    = 1.5             xtid    = 1.5           
+tnoimod = 0
+fnoimod = 0               ef      = 0.89            kf      = 1.0e-23         af      = 2
+saref   = 2.43e-006       sbref   = 2.43e-006       wlod    = 0               kvth0   = 2.24e-009     
+lkvth0  = -2.67e-8        wkvth0  = -2.46e-10       pkvth0  = 0               llodvth = 3.33e-1             
+wlodvth = 3.33e-1         stk2    = 4e-10           lodk2   = 1               lodeta0 = 1             
+ku0     = -2.13e-9        lku0    = 1.26e-7         wku0    = 1.12e-7         pku0    = 0             
+llodku0 = 2.0e-1          wlodku0 = 2.0e-1          kvsat   = 0               steta0  = -4e-10             
+tku0    = 0             
+web     = 1.68e2         wec     = 1.88e3         kvth0we = 1.33e-2         k2we    = 0
+ku0we   = -9.35e-3        scref   = 1e-6
+wpemod  = 1
.model  NENHT33.2  nmos  level = 54
+lmin    = 4.204e-007      lmax    = 6.92e-007       wmin    = 3e-006          wmax    = 0.00010001    
+version = 4.5             binunit = 1               paramchk= 1               mobmod  = 0             
+capmod  = 2               igcmod  = 1               igbmod  = 1               geomod  = 0             
+diomod  = 1               rdsmod  = 0               rbodymod= 0               rgatemod= 0             
+permod  = 1               acnqsmod= 0               trnqsmod= 0             
+noia    = 2.5e+41         noib    = 2.33e+25        noic    = 8.75
+em      = 4.1e+7          
+tnom    = 25              toxe    = 7.33e-009       toxp    = 7.13e-009       toxm    = 7.5e-009      
+epsrox  = 3.9             wint    = 2.64e-008       lint    = 1.85e-008       ll      = 0             
+wl      = 0               lln     = 1               wln     = 1               lw      = 0             
+ww      = 0               lwn     = 1               wwn     = 1               lwl     = 0             
+wwl     = 0               dlc     = 3.86e-008       dwc     = 2.9e-008        xl      = 0             
+xw      = 0               xpart   = 0               toxref  = 7.5e-009        dlcig   = 0             
+vth0    = '0.53974369+(mcm_NENHT33_vth0*mcmScale)'      lvth0   = -0.012428834    wvth0   = -0.031216753    pvth0   = 0.020718575   
+k1      = 0.78239751      lk1     = -0.046761924    wk1     = -0.07442077     pk1     = 0.042170265   
+k2      = -0.0049589337   lk2     = -0.0001176301   wk2     = -0.00075445228  pk2     = -2.064318e-005
+k3      = 0               k3b     = 0               w0      = 0               dvt0    = 0             
+dvt1    = 0               dvt2    = 0               dvt0w   = 0               dvt1w   = 0             
+dvt2w   = 0               dsub    = 0.15            minv    = -0.34116348     lminv   = 0.092462077   
+pminv   = 4.4221279e-016  voffl   = 0               dvtp0   = 0               dvtp1   = 0             
+lpe0    = 0               lpeb    = 0               lambda  = 0               llambda = 0             
+wlambda = 0               plambda = 0               lc      = 0               xn      = 3             
+lxn     = 0               wxn     = 0               pxn     = 0               vbm     = -3            
+xj      = 1.5e-007        ngate   = 1e+023          ndep    = 2.17e+017       nsd     = 1e+020        
+phin    = 0               cdsc    = 0               cdscb   = 0               cdscd   = 0             
+cit     = 0.00010485781   lcit    = -2.1555565e-008  wcit    = -1.0085126e-006  pcit    = 7.2386081e-007
+voff    = -0.1524657      lvoff   = 0.0068291557    wvoff   = -0.033786715    pvoff   = 0.011048278   
+nfactor = 1               eta0    = -0.0032646641   leta0   = 0.0031686722    weta0   = -6.5031293e-018
+peta0   = 1.6257823e-018  etab    = 0.0032646641    letab   = -0.0031686722   wetab   = 6.5031293e-018
+petab   = -1.6257823e-018  u0      = '0.031621282*(((1+mcm_NENHT33_u0*mcmScale)-1)+1)'     lu0     = 0.0025767416    wu0     = 0.0038695103  
+pu0     = -0.0053051373   ua      = -7.6294684e-010  lua     = -1.1298185e-010  wua     = 1.4548096e-009
+pua     = -5.0960297e-010  ub      = 2.2811971e-018  lub     = 2.5914087e-019  wub     = -2.7522e-018  
+pub     = 6.5055698e-019  uc      = 9.4300607e-011  luc     = 8.2891818e-012  wuc     = -1.3477412e-010
+puc     = 3.4812543e-011  eu      = 1.67            vsat    = 91587.404       lvsat   = -4480.9508    
+wvsat   = 6.0007422e-010  pvsat   = 3.5458931e-010  a0      = 1.2266069       la0     = -0.2160703    
+wa0     = 0.019169251     pa0     = -0.28096085     ags     = 0.185           a1      = 0             
+a2      = 0.99            b0      = 0               b1      = 0               keta    = -0.020230305  
+lketa   = 0.0042231031    wketa   = 0.0074340167    pketa   = -0.0069864863   dwg     = 0             
+dwb     = 0               pclm    = 0.5             pdiblc1 = 0.0001          pdiblc2 = -0.00016785163
+lpdiblc2= 0.00025605431   wpdiblc2= 1.2193367e-018  pdiblcb = 0.01            drout   = 0.56          
+pvag    = 0.6             delta   = 0.01            pscbe1  = 3e+008          pscbe2  = 1e-006        
+fprout  = 0               pdits   = 0               pditsd  = 0               pditsl  = 0             
+rdsw    = 270             rdswmin = 0.0001          prwg    = 0               prwb    = 0             
+wr      = 1               alpha0  = 6e-007          alpha1  = 2.5             beta0   = 20            
+agidl   = 3e-008          bgidl   = 2.72e+009       cgidl   = 50              egidl   = 0.8           
+aigbacc = 1               bigbacc = 0               cigbacc = 0               nigbacc = 1             
+aigbinv = 1               bigbinv = 0               cigbinv = 0               eigbinv = 1.1           
+nigbinv = 3               aigc    = 1               bigc    = 0               cigc    = 0             
+aigsd   = 0.43            bigsd   = 0.054           cigsd   = 0.075           nigc    = 1             
+poxedge = 1               pigcd   = 1               ntox    = 1               xrcrg1  = 12            
+xrcrg2  = 1             
+cgso    = 1e-010          cgdo    = 1e-010          cgbo    = 1e-013          cgdl    = 1e-010        
+cgsl    = 1e-010          clc     = 1e-007          cle     = 0.6             ckappas = 0.6           
+ckappad = 0.6             vfbcv   = -1              acde    = -0.0017774507   lacde   = 0.38408147    
+wacde   = -8.3240055e-016  pacde   = -1.6648011e-015  moin    = 15              noff    = 0.66074175    
+lnoff   = 1.2802716       wnoff   = 2.3307215e-014  pnoff   = -6.6592044e-015  voffcv  = 0.016962908   
+lvoffcv = -0.064013579    wvoffcv = -1.0405007e-016  pvoffcv = 4.1620027e-016
+kt1     = -0.3518         kt1l    = 0               kt2     = -0.02052        ute     = -0.89377257   
+lute    = -0.16948892     wute    = 0.74915622      pute    = -0.19249017     ua1     = 3.5061292e-009
+lua1    = -8.086808e-011  wua1    = 3.1760841e-009  pua1    = -1.5388507e-009  ub1     = -3.8383259e-018
+lub1    = -5.5394354e-019  wub1    = -2.1409944e-018  pub1    = 1.7023868e-018  uc1     = -5.9895708e-011
+luc1    = -2.5679184e-011  wuc1    = -8.9013876e-011  puc1    = 6.4154518e-011  prt     = 0             
+at      = 15000         
+jss     = 2.5e-006        jsws    = 4e-013          jswgs   = 2.5e-012        njs     = 1.15          
+ijthsfwd= 0.1             ijthsrev= 0.1             jsd     = 2.5e-006        jswd    = 4e-013        
+jswgd   = 2.5e-012        njd     = 1.15            ijthdfwd= 0.1             ijthdrev= 0.1           
+pbs     = 0.7911          cjs     = 0.001385        mjs     = 0.3392          pbsws   = 0.234         
+cjsws   = 5.324e-011      mjsws   = 0.03745         pbswgs  = 0.4806          cjswgs  = 4.601e-010    
+mjswgs  = 0.07873         pbd     = 0.7911          cjd     = 0.001385        mjd     = 0.3392        
+pbswd   = 0.234           cjswd   = 5.324e-011      mjswd   = 0.03745         pbswgd  = 0.4806        
+cjswgd  = 4.601e-010      mjswgd  = 0.07873         tpb     = 0.00168         tcj     = 0.0007745     
+tpbsw   = 0.0005562       tcjsw   = 0.0003175       tpbswg  = 0.001801        tcjswg  = 0.0005604     
+xtis    = 1.5             xtid    = 1.5           
+tnoimod = 0
+fnoimod = 0               ef      = 0.89            kf      = 1.0e-23         af      = 2
+saref   = 2.43e-006       sbref   = 2.43e-006       wlod    = 0               kvth0   = 2.24e-009     
+lkvth0  = -2.67e-8        wkvth0  = -2.46e-10       pkvth0  = 0               llodvth = 3.33e-1             
+wlodvth = 3.33e-1         stk2    = 4e-10           lodk2   = 1               lodeta0 = 1             
+ku0     = -2.13e-9        lku0    = 1.26e-7         wku0    = 1.12e-7         pku0    = 0             
+llodku0 = 2.0e-1          wlodku0 = 2.0e-1          kvsat   = 0               steta0  = -4e-10             
+tku0    = 0             
+web     = 1.68e2         wec     = 1.88e3         kvth0we = 1.33e-2         k2we    = 0
+ku0we   = -9.35e-3        scref   = 1e-6
+wpemod  = 1
.model  NENHT33.3  nmos  level = 54
+lmin    = 3.574e-007      lmax    = 4.204e-007      wmin    = 3e-006          wmax    = 0.00010001    
+version = 4.5             binunit = 1               paramchk= 1               mobmod  = 0             
+capmod  = 2               igcmod  = 1               igbmod  = 1               geomod  = 0             
+diomod  = 1               rdsmod  = 0               rbodymod= 0               rgatemod= 0             
+permod  = 1               acnqsmod= 0               trnqsmod= 0             
+noia    = 2.5e+41         noib    = 2.33e+25        noic    = 8.75
+em      = 4.1e+7          
+tnom    = 25              toxe    = 7.33e-009       toxp    = 7.13e-009       toxm    = 7.5e-009      
+epsrox  = 3.9             wint    = 2.64e-008       lint    = 1.85e-008       ll      = 0             
+wl      = 0               lln     = 1               wln     = 1               lw      = 0             
+ww      = 0               lwn     = 1               wwn     = 1               lwl     = 0             
+wwl     = 0               dlc     = 3.86e-008       dwc     = 2.9e-008        xl      = 0             
+xw      = 0               xpart   = 0               toxref  = 7.5e-009        dlcig   = 0             
+vth0    = '0.55275174+(mcm_NENHT33_vth0*mcmScale)'      lvth0   = -0.017416121    wvth0   = 0.10018737      pvth0   = -0.029661766  
+k1      = 0.78712162      lk1     = -0.04857315     wk1     = 0.29890451      pk1     = -0.10096265   
+k2      = -0.002959308    lk2     = -0.00088428661  wk2     = -0.0086400301   pk2     = 0.0030026874  
+k3      = 0               k3b     = 0               w0      = 0               dvt0    = 0             
+dvt1    = 0               dvt2    = 0               dvt0w   = 0               dvt1w   = 0             
+dvt2w   = 0               dsub    = 0.15            minv    = -0.1            voffl   = 0             
+dvtp0   = 0               dvtp1   = 0               lpe0    = 0               lpeb    = 0             
+lambda  = 0               llambda = 0               wlambda = 0               plambda = 0             
+lc      = 0               xn      = 3               lxn     = 0               wxn     = 0             
+pxn     = 0               vbm     = -3              xj      = 1.5e-007        ngate   = 1e+023        
+ndep    = 2.17e+017       nsd     = 1e+020          phin    = 0               cdsc    = 0             
+cdscb   = 0               cdscd   = 0               cit     = 0.00012238975   lcit    = -6.7433032e-006
+wcit    = -6.4296223e-005  pcit    = 2.4988369e-005  voff    = -0.13330412     lvoff   = -0.00051739416
+wvoff   = -0.030548193    pvoff   = 0.0098066283    nfactor = 1               eta0    = -0.0051714286 
+leta0   = 0.0038997257    weta0   = 5.2056593e-016  peta0   = -1.8798214e-016  etab    = -0.005        
+u0      = '0.040882011*(((1+mcm_NENHT33_u0*mcmScale)-1)+1)'     lu0     = -0.00097382168  wu0     = -0.047880243    pu0     = 0.014535718   
+ua      = -7.5887008e-010  lua     = -1.1454488e-010  wua     = -1.8850078e-009  pua     = 7.7088302e-010
+ub      = 2.2025594e-018  lub     = 2.8929057e-019  wub     = 2.3524906e-018  pub     = -1.3065814e-018
+uc      = 4.7560314e-011  luc     = 2.620941e-011   wuc     = 3.4260686e-010  puc     = -1.4821533e-010
+eu      = 1.67            vsat    = 94353.891       lvsat   = -5541.6217      wvsat   = -42598.506    
+pvsat   = 16332.267       a0      = 2.7754864       la0     = -0.80991068     wa0     = -5.7253589    
+pa0     = 1.9214913       ags     = 0.185           a1      = 0               a2      = 0.99          
+b0      = 0               b1      = 0               keta    = 0.011920768     lketa   = -0.0081036184 
+wketa   = -0.10923358     pketa   = 0.03774387      dwg     = 0               dwb     = 0             
+pclm    = 0.5             pdiblc1 = 0.0001          pdiblc2 = 0.0005          pdiblcb = 0.01          
+drout   = 0.56            pvag    = 0.6             delta   = 0.01            pscbe1  = 3e+008        
+pscbe2  = 1e-006          fprout  = 0               pdits   = 0               pditsd  = 0             
+pditsl  = 0               rdsw    = 270             rdswmin = 0.0001          prwg    = 0             
+prwb    = 0               wr      = 1               alpha0  = 6e-007          alpha1  = 2.5           
+beta0   = 20              agidl   = 3e-008          bgidl   = 2.72e+009       cgidl   = 50            
+egidl   = 0.8             aigbacc = 1               bigbacc = 0               cigbacc = 0             
+nigbacc = 1               aigbinv = 1               bigbinv = 0               cigbinv = 0             
+eigbinv = 1.1             nigbinv = 3               aigc    = 1               bigc    = 0             
+cigc    = 0               aigsd   = 0.43            bigsd   = 0.054           cigsd   = 0.075         
+nigc    = 1               poxedge = 1               pigcd   = 1               ntox    = 1             
+xrcrg1  = 12              xrcrg2  = 1             
+cgso    = 1e-010          cgdo    = 1e-010          cgbo    = 1e-013          cgdl    = 1e-010        
+cgsl    = 1e-010          clc     = 1e-007          cle     = 0.6             ckappas = 0.6           
+ckappad = 0.6             vfbcv   = -1              acde    = 1               moin    = 15            
+noff    = 4               voffcv  = -0.15         
+kt1     = -0.3518         kt1l    = 0               kt2     = -0.02052        ute     = -1.7622305    