*simulator lang=spice


*** .LIB MOS ***
.SUBCKT NENHHP_S D G S B l=0 wpf=0 as=0 ad=0 ps=0 pd=0 nrs=0 nrd=0 simM=1 sa=0 sb=0 sc=0 sca=0 scb=0 scc=0 mcm_NENHHP_vth0=0 mcm_NENHHP_u0=0
** Pelgrom Scaling parameter **
.param mcmScale='1/sqrt(l*wpf)*1/sqrt(simM)'

.flat M0
M0 D G S B NENHHP  l=l w=wpf as=as ad=ad ps=ps pd=pd nrs=nrs nrd=nrd
+ m=simM sa=sa sb=sb sc=sc sca=sca scb=scb scc=scc

.MODEL NENHHP.001 NMOS
+LMIN = '9.00000000e-08+lminoffsetn_hp'
+LMAX = '9.30000000e-08+dlmaxn_hp'
+WMIN = '1.00000000e-05+dwminn0_hp'
+WMAX = '1.00000000e-04+wmaxoffsetn_hp'
+BINUNIT = 0
+LEVEL = 54
+VERSION = 4.5
+PARAMCHK = 0
+MOBMOD = 2
+CAPMOD = 2
+IGCMOD = 1
+IGBMOD = 1
+GEOMOD = 0
+DIOMOD = 1
+RDSMOD = 0
+RBODYMOD = 0
+RGATEMOD = 0
+PERMOD = 1
+ACNQSMOD = 0
+TRNQSMOD = 0
+TNOM = 23
+TOXE = '2.43e-09+dtoxn_hp'
+TOXP = '2.17e-09+dtoxn_hp'
+TOXM = 2.43e-09
+EPSROX = 3.9
+WINT = '3.59200000e-08+dwintn_hp'
+LINT = '2.10900000e-08+dlintn_hp'
+LL = 0
+WL = 0
+LLN = 1
+WLN = 1
+LW = 0
+WW = -9.454e-17
+LWN = 1
+WWN = 1.165
+LWL = 0
+WWL = 0
+LLC = 0
+WLC = 0
+LWC = 0
+WWC = -9.454e-17
+LWLC = 0
+WWLC = 0
+DLC = '2.75000000e-08+ddlcn_hp'
+DWC = '2.59200000e-08+ddwcn_hp'
+XPART = 0
+TOXREF = 2.43e-09
+DLCIG = 7.3824042e-09
+VTH0 = '0.362+dvth0n001_hp+(mcm_NENHHP_vth0*mcmScale)'
+K1 = '0.652*dk1factorn_hp'
+K2 = '-0.14*dk2factorn_hp'
+K3 = 0
+K3B = 0
+W0 = 0
+DVT0 = 0
+DVT1 = 0.56
+DVT2 = 0
+DVT0W = 0
+DVT1W = 5300000
+DVT2W = 0
+DSUB = 0.56
+MINV = 0
+VOFFL = 0
+DVTP0 = 0
+DVTP1 = 0
+LPE0 = 0
+LPEB = 0
+XJ = 1.5e-08
+NGATE = 9e+21
+NDEP = 6.5e+17
+NSD = 1e+20
+PHIN = 5.960465e-09
+CDSC = 0
+CDSCB = -0.003
+CDSCD = 0
+CIT = 0
+VOFF = -0.13
+NFACTOR = 2.25
+ETA0 = 0.12
+ETAB = -0.1
+U0 = '(0.024*du0factorn_hp)*(((1+mcm_NENHHP_u0*mcmScale)-1)+1)'
+UA = 2.124e-28
+UB = 1e-19
+UC = -2.187e-28
+EU = 2.9
+VSAT = '115000*dvsatfactorn_hp'
+A0 = 1
+AGS = 1
+A1 = 0
+A2 = 0.99
+B0 = 0
+B1 = 0
+KETA = 0
+DWG = 0
+DWB = 0
+PCLM = 0.7078744
+PDIBLC1 = 0
+PDIBLC2 = 0.04839062
+PDIBLCB = 0.2117339
+DROUT = 0.56
+PVAG = 0.3
+DELTA = 0.01
+PSCBE1 = 2.882151e+09
+PSCBE2 = 0.00025
+FPROUT = 0
+PDITS = 0.01
+PDITSD = 13.95184
+PDITSL = 0
+RSH = 9
+RDSW = 144.8038
+RSW = 72.4019
+RDW = 72.4019
+PRWG = 0
+PRWB = 0.3
+WR = 1
+ALPHA0 = 8e-10
+ALPHA1 = 3.309e-09
+BETA0 = 7
+AGIDL = 1.689e-07
+BGIDL = 2.879e+09
+CGIDL = 3.697
+EGIDL = -0.1135
+AIGBACC = 0.43
+BIGBACC = 0.054
+CIGBACC = 0.075
+NIGBACC = 0.5
+AIGBINV = 0.02
+BIGBINV = 0.008
+CIGBINV = 0.006
+EIGBINV = 1.1
+NIGBINV = 3
+AIGC = 0.0101
+BIGC = 0.001803274
+CIGC = 0.079999995
+AIGSD = 0.0086236294
+BIGSD = 0.00066508585
+CIGSD = 0.01875
+NIGC = 1
+POXEDGE = 1.105647
+PIGCD = 2.1
+NTOX = 1
+XRCRG1 = 12
+XRCRG2 = 1.01
+CGSO = '50.74e-12*dcgsofactorn_hp+dcgson_hp'
+CGDO = '50.74e-12*dcgdofactorn_hp+dcgdon_hp'
+CGBO = 0
+CGDL = '47.7e-12*dcgdlfactorn_hp'
+CGSL = '47.7e-12*dcgslfactorn_hp'
+CLC = 0
+CLE = 0.6
+CF = '135.61e-12*dcffactorn_hp'
+CKAPPAS = 0.9
+CKAPPAD = 0.9
+VFBCV = -0.8940079
+ACDE = 1
+MOIN = 15
+NOFF = 2
+VOFFCV = 0
+KT1 = -0.1977
+KT1L = -1.4584643e-11
+KT2 = -0.03
+UTE = -1.461
+UA1 = 0
+UB1 = 0
+UC1 = 0
+PRT = 0
+AT = 50000
+FNOIMOD = 1
+TNOIMOD = 0
+JSS = 1.5e-5
+JSWS = 3e-11
+JSWGS = 1e-07
+NJS = 1.54
+IJTHSFWD = 0.1
+JSD = 1.5e-5
+JSWD = 3e-11
+JSWGD = 1e-07
+NJD = 1.54
+IJTHDFWD = 0.1
+PBS = 729.7e-3
+CJS = '1.27e-3*dcjfactorn_hp+dcjn_hp'
+MJS = 434.3e-3
+CJSWS = '(43.24e-12-25e-9*1.27e-3)*dcjfactorn_hp'
+MJSWS = 193.6e-3
+PBSWGS = 1.170
+CJSWGS = '336.8e-12*dcjfactorn_hp'
+MJSWGS = 643.9e-3
+PBD = 729.7e-3
+CJD = '1.27e-3*dcjfactorn_hp+dcjn_hp'
+MJD = 434.3e-3
+PBSWD = 1.0
+CJSWD = '(43.24e-12-25e-9*1.27e-3)*dcjfactorn_hp'
+MJSWD = 193.6e-3
+PBSWGD = 1.170
+CJSWGD = '336.8e-12*dcjfactorn_hp'
+MJSWGD = 643.9e-3
+TPB = 0
+TCJ = 0
+TPBSW = 0
+TCJSW = 0
+TPBSWG = 0
+TCJSWG = 0
+XTIS = 1.5
+XTID = 1.5
+DMCG = 0
+DMCI = 0
+DMDG = 0
+DMCGT = 0
+DWJ = '2.59200000e-08+ddwjn_hp'
+XGW = 0
+XGL = 0
+RSHG = 8
+GBMIN = 1e-12
+RBPB = 50
+RBPD = 50
+RBPS = 50
+RBDB = 50
+RBSB = 50
+NGCON = 1
+XL = '0.0+dxln_hp'
+XW = '0.0+dxwn_hp'
+EM = 4.1e+07
+EF = 0.9
+NOIA = 8.25e+41
+NOIB = 1e+25
+NOIC = 8.75
+NTNOI = 1
+PBSWS = 1.0
+LVTH0 = '0.0+dlvth0n001_hp'
+WVTH0 = '0.0+dwvth0n001_hp'
+PVTH0 = '0.0+dpvth0n001_hp'
+saref   = 2.43e-006       sbref   = 2.43e-006       wlod    = 0               kvth0   = 2.24e-009     
+lkvth0  = -2.67e-8        wkvth0  = -2.46e-10       pkvth0  = 0               llodvth = 3.33e-1             
+wlodvth = 3.33e-1         stk2    = 4e-10           lodk2   = 1               lodeta0 = 1             
+ku0     = -2.13e-9        lku0    = 1.26e-7         wku0    = 1.12e-7         pku0    = 0             
+llodku0 = 2.0e-1          wlodku0 = 2.0e-1          kvsat   = 0               steta0  = -4e-10             
+tku0    = 0             
+web     = 1.68e2          wec     = 1.88e3          kvth0we = 1.33e-2         k2we    = 0
+ku0we   = -9.35e-3        scref   = 1e-6            
+wpemod  = 1
.MODEL NENHHP.101 NMOS
+LMIN = '9.00000000e-08+lminoffsetn_hp'
+LMAX = '9.30000000e-08+dlmaxn_hp'
+WMIN = '3.00000000e-06+dwminn1_hp'
+WMAX = '1.00000000e-05+dwmaxn1_hp'
+BINUNIT = 0
+LEVEL = 54
+VERSION = 4.5
+PARAMCHK = 0
+MOBMOD = 2
+CAPMOD = 2
+IGCMOD = 1
+IGBMOD = 1
+GEOMOD = 0
+DIOMOD = 1
+RDSMOD = 0
+RBODYMOD = 0
+RGATEMOD = 0
+PERMOD = 1
+ACNQSMOD = 0
+TRNQSMOD = 0
+TNOM = 23
+TOXE = '2.43e-09+dtoxn_hp'
+TOXP = '2.17e-09+dtoxn_hp'
+TOXM = 2.43e-09
+EPSROX = 3.9
+WINT = '3.59200000e-08+dwintn_hp'
+LINT = '2.10900000e-08+dlintn_hp'
+LL = 0
+WL = 0
+LLN = 1
+WLN = 1
+LW = 0
+WW = -9.454e-17
+LWN = 1
+WWN = 1.165
+LWL = 0
+WWL = 0
+LLC = 0
+WLC = 0
+LWC = 0
+WWC = -9.454e-17
+LWLC = 0
+WWLC = 0
+DLC = '2.75000000e-08+ddlcn_hp'
+DWC = '2.59200000e-08+ddwcn_hp'
+XPART = 0
+TOXREF = 2.43e-09
+DLCIG = 7.3824042e-09
+VTH0 = '0.35948434+dvth0n101_hp+(mcm_NENHHP_vth0*mcmScale)'
+WVTH0 = '2.4975463e-08+dwvth0n101_hp'
+K1 = '0.652*dk1factorn_hp'
+K2 = '-0.1347689*dk2factorn_hp'
+WK2 = '-5.1934405e-08*dk2factorn_hp'
+K3 = 0
+K3B = 0
+W0 = 0
+DVT0 = 0
+DVT1 = 0.56
+DVT2 = 0
+DVT0W = 0
+DVT1W = 5300000
+DVT2W = 0
+DSUB = 0.56
+MINV = 0
+VOFFL = 0
+DVTP0 = 0
+DVTP1 = 0
+LPE0 = 0
+LPEB = 0
+XJ = 1.5e-08
+NGATE = 9e+21
+NDEP = 6.5e+17
+NSD = 1e+20
+PHIN = 5.960465e-09
+CDSC = 0
+CDSCB = -0.003
+CDSCD = 0
+CIT = 0
+VOFF = -0.11828233
+WVOFF = -1.1633307e-07
+NFACTOR = 2.25
+ETA0 = 0.10744535
+WETA0 = 1.2464257e-07
+ETAB = -0.1
+U0 = '(0.022326047*du0factorn_hp)*(((1+mcm_NENHHP_u0*mcmScale)-1)+1)'
+WU0 = '1.661901e-08*du0factorn_hp'
+UA = 2.124e-28
+UB = 1e-19
+UC = -2.187e-28
+EU = 2.9
+VSAT = '110815.12*dvsatfactorn_hp'
+WVSAT = '0.041547524*dvsatfactorn_hp'
+A0 = 1
+AGS = 1
+A1 = 0
+A2 = 0.99
+B0 = 0
+B1 = 0
+KETA = -0.012554651
+WKETA = 1.2464257e-07
+DWG = 0
+DWB = 0
+PCLM = 0.7078744
+PDIBLC1 = 0
+PDIBLC2 = 0.04839062
+PDIBLCB = 0.2117339
+DROUT = 0.56
+PVAG = 0.3
+DELTA = 0.01
+PSCBE1 = 2.882151e+09
+PSCBE2 = 0.00025
+FPROUT = 0
+PDITS = 0.01
+PDITSD = 13.95184
+PDITSL = 0
+RSH = 9
+RDSW = 144.8038
+RSW = 72.4019
+RDW = 72.4019
+PRWG = 0
+PRWB = 0.3
+WR = 1
+ALPHA0 = 8e-10
+ALPHA1 = 3.309e-09
+BETA0 = 7
+AGIDL = 1.689e-07
+BGIDL = 2.879e+09
+CGIDL = 3.697
+EGIDL = -0.1135
+AIGBACC = 0.43
+BIGBACC = 0.054
+CIGBACC = 0.075
+NIGBACC = 0.5
+AIGBINV = 0.02
+BIGBINV = 0.008
+CIGBINV = 0.006
+EIGBINV = 1.1
+NIGBINV = 3
+AIGC = 0.010120924
+WAIGC = -2.0773762e-10
+BIGC = 0.001803274
+CIGC = 0.079999995
+AIGSD = 0.0086236294
+BIGSD = 0.00066508585
+CIGSD = 0.01875
+NIGC = 1
+POXEDGE = 1.105647
+PIGCD = 2.1
+NTOX = 1
+XRCRG1 = 12
+XRCRG2 = 1.01
+CGSO = '50.74e-12*dcgsofactorn_hp+dcgson_hp'
+CGDO = '50.74e-12*dcgdofactorn_hp+dcgdon_hp'
+CGBO = 0
+CGDL = '47.7e-12*dcgdlfactorn_hp'
+CGSL = '47.7e-12*dcgslfactorn_hp'
+CLC = 0
+CLE = 0.6
+CF = '135.61e-12*dcffactorn_hp'
+CKAPPAS = 0.9
+CKAPPAD = 0.9
+VFBCV = -0.8940079
+ACDE = 1
+MOIN = 15
+NOFF = 2
+VOFFCV = 0
+KT1 = -0.19686302
+WKT1 = -8.3095048e-09
+KT1L = -1.4584643e-11
+KT2 = -0.03
+UTE = -1.4237545
+WUTE = -3.6977296e-07
+UA1 = 0
+UB1 = 0
+UC1 = 0
+PRT = 0
+AT = 50000
+FNOIMOD = 1
+TNOIMOD = 0
+JSS = 1.5e-5
+JSWS = 3e-11
+JSWGS = 1e-07
+NJS = 1.54
+IJTHSFWD = 0.1
+JSD = 1.5e-5
+JSWD = 3e-11
+JSWGD = 1e-07
+NJD = 1.54
+IJTHDFWD = 0.1
+PBS = 729.7e-3
+CJS = '1.27e-3*dcjfactorn_hp+dcjn_hp'
+MJS = 434.3e-3
+CJSWS = '(43.24e-12-25e-9*1.27e-3)*dcjfactorn_hp'
+MJSWS = 193.6e-3
+PBSWGS = 1.170
+CJSWGS = '336.8e-12*dcjfactorn_hp'
+MJSWGS = 643.9e-3
+PBD = 729.7e-3
+CJD = '1.27e-3*dcjfactorn_hp+dcjn_hp'
+MJD = 434.3e-3
+PBSWD = 1.0
+CJSWD = '(43.24e-12-25e-9*1.27e-3)*dcjfactorn_hp'
+MJSWD = 193.6e-3
+PBSWGD = 1.170
+CJSWGD = '336.8e-12*dcjfactorn_hp'
+MJSWGD = 643.9e-3
+TPB = 0
+TCJ = 0
+TPBSW = 0
+TCJSW = 0
+TPBSWG = 0
+TCJSWG = 0
+XTIS = 1.5
+XTID = 1.5
+DMCG = 0
+DMCI = 0
+DMDG = 0
+DMCGT = 0
+DWJ = '2.59200000e-08+ddwjn_hp'
+XGW = 0
+XGL = 0
+RSHG = 8
+GBMIN = 1e-12
+RBPB = 50
+RBPD = 50
+RBPS = 50
+RBDB = 50
+RBSB = 50
+NGCON = 1
+XL = '0.0+dxln_hp'
+XW = '0.0+dxwn_hp'
+EM = 4.1e+07
+EF = 0.9
+NOIA = 8.25e+41
+NOIB = 1e+25
+NOIC = 8.75
+NTNOI = 1
+PBSWS = 1.0
+LVTH0 = '0.0+dlvth0n101_hp'
+PVTH0 = '0.0+dpvth0n101_hp'
+saref   = 2.43e-006       sbref   = 2.43e-006       wlod    = 0               kvth0   = 2.24e-009     
+lkvth0  = -2.67e-8        wkvth0  = -2.46e-10       pkvth0  = 0               llodvth = 3.33e-1             
+wlodvth = 3.33e-1         stk2    = 4e-10           lodk2   = 1               lodeta0 = 1             
+ku0     = -2.13e-9        lku0    = 1.26e-7         wku0    = 1.12e-7         pku0    = 0             
+llodku0 = 2.0e-1          wlodku0 = 2.0e-1          kvsat   = 0               steta0  = -4e-10             
+tku0    = 0             
+web     = 1.68e2          wec     = 1.88e3          kvth0we = 1.33e-2         k2we    = 0
+ku0we   = -9.35e-3        scref   = 1e-6            
+wpemod  = 1
.MODEL NENHHP.201 NMOS
+LMIN = '9.00000000e-08+lminoffsetn_hp'
+LMAX = '9.30000000e-08+dlmaxn_hp'
+WMIN = '1.00000000e-06+dwminn2_hp'
+WMAX = '3.00000000e-06+dwmaxn2_hp'
+BINUNIT = 0
+LEVEL = 54
+VERSION = 4.5
+PARAMCHK = 0
+MOBMOD = 2
+CAPMOD = 2
+IGCMOD = 1
+IGBMOD = 1
+GEOMOD = 0
+DIOMOD = 1
+RDSMOD = 0
+RBODYMOD = 0
+RGATEMOD = 0
+PERMOD = 1
+ACNQSMOD = 0
+TRNQSMOD = 0
+TNOM = 23
+TOXE = '2.43e-09+dtoxn_hp'
+TOXP = '2.17e-09+dtoxn_hp'
+TOXM = 2.43e-09
+EPSROX = 3.9
+WINT = '3.59200000e-08+dwintn_hp'
+LINT = '2.10900000e-08+dlintn_hp'
+LL = 0
+WL = 0
+LLN = 1
+WLN = 1
+LW = 0
+WW = -9.454e-17
+LWN = 1
+WWN = 1.165
+LWL = 0
+WWL = 0
+LLC = 0
+WLC = 0
+LWC = 0
+WWC = -9.454e-17
+LWLC = 0
+WWLC = 0
+DLC = '2.75000000e-08+ddlcn_hp'
+DWC = '2.59200000e-08+ddwcn_hp'
+XPART = 0
+TOXREF = 2.43e-09
+DLCIG = 7.3824042e-09
+VTH0 = '0.36855982+dvth0n201_hp+(mcm_NENHHP_vth0*mcmScale)'
+LVTH0 = '-6.1631657e-10+dlvth0n201_hp'
+WVTH0 = '-1.6066231e-09+dwvth0n201_hp'
+PVTH0 = '1.8051912e-15+dpvth0n201_hp'
+K1 = '0.652*dk1factorn_hp'
+K2 = '-0.15640403*dk2factorn_hp'
+LK2 = '2.4230944e-10*dk2factorn_hp'
+WK2 = '1.1434914e-08*dk2factorn_hp'
+PK2 = '-7.0972435e-16*dk2factorn_hp'
+K3 = 0
+K3B = 0
+W0 = 0
+DVT0 = 0
+DVT1 = 0.56
+DVT2 = 0
+DVT0W = 0
+DVT1W = 5300000
+DVT2W = 0
+DSUB = 0.56
+MINV = 0
+VOFFL = 0
+DVTP0 = 0
+DVTP1 = 0
+LPE0 = 0
+LPEB = 0
+XJ = 1.5e-08
+NGATE = 9e+21
+NDEP = 6.5e+17
+NSD = 1e+20
+PHIN = 5.960465e-09
+CDSC = 0
+CDSCB = -0.003
+CDSCD = 0
+CIT = 0
+VOFF = -0.17938279
+LVOFF = 1.3483854e-09
+WVOFF = 6.2630202e-08
+PVOFF = -3.9494209e-15
+NFACTOR = 2.25
+ETA0 = 0.17584233
+LETA0 = -1.23578e-09
+WETA0 = -7.5692173e-08
+PETA0 = 3.6195997e-15
+ETAB = -0.1
+U0 = '(0.028819034*du0factorn_hp)*(((1+mcm_NENHHP_u0*mcmScale)-1)+1)'
+LU0 = '-4.3615699e-11*du0factorn_hp'
+WU0 = '-2.3989511e-09*du0factorn_hp'
+PU0 = '1.2775038e-16*du0factorn_hp'
+UA = 2.124e-28
+UB = 1e-19
+UC = -2.187e-28
+EU = 2.9
+VSAT = '129560.44*dvsatfactorn_hp'
+LVSAT = '-0.00021808038*dvsatfactorn_hp'
+WVSAT = '-0.013357537*dvsatfactorn_hp'
+PVSAT = '6.3875743e-10*dvsatfactorn_hp'
+A0 = 0.73834768
+LA0 = 1.6961698e-08
+WA0 = 7.6637963e-07
+PA0 = -4.9680815e-14
+AGS = 1.1013425
+LAGS = -4.8462001e-09
+WAGS = -2.9683229e-07
+PAGS = 1.419452e-14
+A1 = 0
+A2 = 0.99
+B0 = 0
+B1 = 0
+KETA = 0.024932877
+LKETA = 2.4230982e-10
+WKETA = 1.4841603e-08
+PKETA = -7.0972545e-16
+DWG = 0
+DWB = 0
+PCLM = 0.7078744
+PDIBLC1 = 0
+PDIBLC2 = 0.04839062
+PDIBLCB = 0.2117339
+DROUT = 0.56
+PVAG = 0.3
+DELTA = 0.01
+PSCBE1 = 2.882151e+09
+PSCBE2 = 0.00025
+FPROUT = 0
+PDITS = 0.01
+PDITSD = 13.95184
+PDITSL = 0
+RSH = 9
+RDSW = 144.8038
+RSW = 72.4019
+RDW = 72.4019
+PRWG = 0
+PRWB = 0.3
+WR = 1
+ALPHA0 = 8e-10
+ALPHA1 = 3.309e-09
+BETA0 = 7
+AGIDL = 1.689e-07
+BGIDL = 2.879e+09
+CGIDL = 3.697
+EGIDL = -0.1135
+AIGBACC = 0.43
+BIGBACC = 0.054
+CIGBACC = 0.075
+NIGBACC = 0.5
+AIGBINV = 0.02
+BIGBINV = 0.008
+CIGBINV = 0.006
+EIGBINV = 1.1
+NIGBINV = 3
+AIGC = 0.010020516
+LAIGC = 3.6346604e-12
+WAIGC = 8.6358218e-11
+PAIGC = -1.064592e-17
+BIGC = 0.001803274
+CIGC = 0.079999995
+AIGSD = 0.0086236294
+BIGSD = 0.00066508585
+CIGSD = 0.01875
+NIGC = 1
+POXEDGE = 1.105647
+PIGCD = 2.1
+NTOX = 1
+XRCRG1 = 12
+XRCRG2 = 1.01
+CGSO = '50.74e-12*dcgsofactorn_hp+dcgson_hp'
+CGDO = '50.74e-12*dcgdofactorn_hp+dcgdon_hp'
+CGBO = 0
+CGDL = '47.7e-12*dcgdlfactorn_hp'
+CGSL = '47.7e-12*dcgslfactorn_hp'
+CLC = 0
+CLE = 0.6
+CF = '135.61e-12*dcffactorn_hp'
+CKAPPAS = 0.9
+CKAPPAD = 0.9
+VFBCV = -0.8940079
+ACDE = 1
+MOIN = 15
+NOFF = 2
+VOFFCV = 0
+KT1 = -0.1997
+KT1L = -1.4584643e-11
+KT2 = -0.03
+UTE = -1.5971712
+LUTE = 3.3680993e-09
+WUTE = 1.3816453e-07
+PUTE = -9.8651629e-15
+UA1 = 0
+UB1 = 0
+UC1 = 0
+PRT = 0
+AT = 50000
+FNOIMOD = 1
+TNOIMOD = 0
+JSS = 1.5e-5
+JSWS = 3e-11
+JSWGS = 1e-07
+NJS = 1.54
+IJTHSFWD = 0.1
+JSD = 1.5e-5
+JSWD = 3e-11
+JSWGD = 1e-07
+NJD = 1.54
+IJTHDFWD = 0.1
+PBS = 729.7e-3
+CJS = '1.27e-3*dcjfactorn_hp+dcjn_hp'
+MJS = 434.3e-3
+CJSWS = '(43.24e-12-25e-9*1.27e-3)*dcjfactorn_hp'
+MJSWS = 193.6e-3
+PBSWGS = 1.170
+CJSWGS = '336.8e-12*dcjfactorn_hp'
+MJSWGS = 643.9e-3
+PBD = 729.7e-3
+CJD = '1.27e-3*dcjfactorn_hp+dcjn_hp'
+MJD = 434.3e-3
+PBSWD = 1.0
+CJSWD = '(43.24e-12-25e-9*1.27e-3)*dcjfactorn_hp'
+MJSWD = 193.6e-3
+PBSWGD = 1.170
+CJSWGD = '336.8e-12*dcjfactorn_hp'
+MJSWGD = 643.9e-3
+TPB = 0
+TCJ = 0
+TPBSW = 0
+TCJSW = 0
+TPBSWG = 0
+TCJSWG = 0
+XTIS = 1.5
+XTID = 1.5
+DMCG = 0
+DMCI = 0
+DMDG = 0
+DMCGT = 0
+DWJ = '2.59200000e-08+ddwjn_hp'
+XGW = 0
+XGL = 0
+RSHG = 8
+GBMIN = 1e-12
+RBPB = 50
+RBPD = 50
+RBPS = 50
+RBDB = 50
+RBSB = 50
+NGCON = 1
+XL = '0.0+dxln_hp'
+XW = '0.0+dxwn_hp'
+EM = 4.1e+07
+EF = 0.9
+NOIA = 8.25e+41
+NOIB = 1e+25
+NOIC = 8.75
+NTNOI = 1
+PBSWS = 1.0
+saref   = 2.43e-006       sbref   = 2.43e-006       wlod    = 0               kvth0   = 2.24e-009     
+lkvth0  = -2.67e-8        wkvth0  = -2.46e-10       pkvth0  = 0               llodvth = 3.33e-1             
+wlodvth = 3.33e-1         stk2    = 4e-10           lodk2   = 1               lodeta0 = 1             
+ku0     = -2.13e-9        lku0    = 1.26e-7         wku0    = 1.12e-7         pku0    = 0             
+llodku0 = 2.0e-1          wlodku0 = 2.0e-1          kvsat   = 0               steta0  = -4e-10             
+tku0    = 0             
+web     = 1.68e2          wec     = 1.88e3          kvth0we = 1.33e-2         k2we    = 0
+ku0we   = -9.35e-3        scref   = 1e-6            
+wpemod  = 1
.MODEL NENHHP.301 NMOS
+LMIN = '9.00000000e-08+lminoffsetn_hp'
+LMAX = '9.30000000e-08+dlmaxn_hp'
+WMIN = '5.00000000e-07+dwminn3_hp'
+WMAX = '1.00000000e-06+dwmaxn3_hp'
+BINUNIT = 0
+LEVEL = 54
+VERSION = 4.5
+PARAMCHK = 0
+MOBMOD = 2
+CAPMOD = 2
+IGCMOD = 1
+IGBMOD = 1
+GEOMOD = 0
+DIOMOD = 1
+RDSMOD = 0
+RBODYMOD = 0
+RGATEMOD = 0
+PERMOD = 1
+ACNQSMOD = 0
+TRNQSMOD = 0
+TNOM = 23
+TOXE = '2.43e-09+dtoxn_hp'
+TOXP = '2.17e-09+dtoxn_hp'
+TOXM = 2.43e-09
+EPSROX = 3.9
+WINT = '3.59200000e-08+dwintn_hp'
+LINT = '2.10900000e-08+dlintn_hp'
+LL = 0
+WL = 0
+LLN = 1
+WLN = 1
+LW = 0
+WW = -9.454e-17
+LWN = 1
+WWN = 1.165
+LWL = 0
+WWL = 0
+LLC = 0
+WLC = 0
+LWC = 0
+WWC = -9.454e-17
+LWLC = 0
+WWLC = 0
+DLC = '2.75000000e-08+ddlcn_hp'
+DWC = '2.59200000e-08+ddwcn_hp'
+XPART = 0
+TOXREF = 2.43e-09
+DLCIG = 7.3824042e-09
+VTH0 = '0.25319942+dvth0n301_hp+(mcm_NENHHP_vth0*mcmScale)'
+LVTH0 = '7.650598e-09+dlvth0n301_hp'
+WVTH0 = '1.0567855e-07+dwvth0n301_hp'
+PVTH0 = '-5.8830393e-15+dpvth0n301_hp'
+K1 = '0.652*dk1factorn_hp'
+K2 = '-0.2143025*dk2factorn_hp'
+LK2 = '3.2506696e-09*dk2factorn_hp'
+WK2 = '6.5280487e-08*dk2factorn_hp'
+PK2 = '-3.5074993e-15*dk2factorn_hp'
+K3 = 0
+K3B = 0
+W0 = 0
+DVT0 = 0
+DVT1 = 0.56
+DVT2 = 0
+DVT0W = 0
+DVT1W = 5300000
+DVT2W = 0
+DSUB = 0.56
+MINV = 0
+VOFFL = 0
+DVTP0 = 0
+DVTP1 = 0
+LPE0 = 0
+LPEB = 0
+XJ = 1.5e-08
+NGATE = 9e+21
+NDEP = 6.5e+17
+NSD = 1e+20
+PHIN = 5.960465e-09
+CDSC = 0
+CDSCB = 0.0032938639
+LCDSCB = -3.8393739e-10
+WCDSCB = -5.8532935e-09
+PCDSCB = 3.5706178e-16
+CDSCD = 0
+CIT = 0
+VOFF = -0.11259084
+LVOFF = -2.8408078e-09
+WVOFF = 5.1368066e-10
+PVOFF = -5.3471185e-17
+NFACTOR = 4.0564813
+LNFACTOR = -8.6385934e-08
+WNFACTOR = -1.6800276e-06
+PNFACTOR = 8.0338919e-14
+ETA0 = 0.28922131
+LETA0 = -4.5419602e-09
+WETA0 = -1.8113463e-07
+PETA0 = 6.6943472e-15
+ETAB = -0.1
+U0 = '(0.04144366*du0factorn_hp)*(((1+mcm_NENHHP_u0*mcmScale)-1)+1)'
+LU0 = '-7.0798016e-10*du0factorn_hp'
+WU0 = '-1.4139853e-08*du0factorn_hp'
+PU0 = '7.4560933e-16*du0factorn_hp'
+UA = 2.124e-28
+UB = 1e-19
+UC = 1.5383651e-27
+LUC = -8.4022855e-35
+WUC = -1.6340706e-33
+PUC = 7.8141255e-41
+EU = 2.9
+VSAT = '109841.02*dvsatfactorn_hp'
+LVSAT = '0.00068342004*dvsatfactorn_hp'
+WVSAT = '0.0049815265*dvsatfactorn_hp'
+PVSAT = '-1.9963795e-10*dvsatfactorn_hp'
+A0 = 1.2797015
+LA0 = -1.0494602e-08
+WA0 = 2.6292059e-07
+PA0 = -2.4146455e-14
+AGS = 0.59320536
+LAGS = 1.945292e-08
+WAGS = 1.7573528e-07
+PAGS = -8.4036613e-15
+A1 = 0
+A2 = 0.99
+B0 = 0
+B1 = 0
+KETA = 0.050339716
+LKETA = -9.7264523e-10
+WKETA = -8.7867574e-09
+PKETA = 4.2018274e-16
+DWG = 0
+DWB = 0
+PCLM = 0.7078744
+PDIBLC1 = 0
+PDIBLC2 = 0.04839062
+PDIBLCB = 0.2117339
+DROUT = 0.56
+PVAG = 0.3
+DELTA = 0.01
+PSCBE1 = 2.882151e+09
+PSCBE2 = 0.00025
+FPROUT = 0
+PDITS = 0.01
+PDITSD = 13.95184
+PDITSL = 0
+RSH = 9
+RDSW = 144.8038
+RSW = 72.4019
+RDW = 72.4019
+PRWG = 0
+PRWB = 0.3
+WR = 1
+ALPHA0 = 8e-10
+ALPHA1 = 3.309e-09
+BETA0 = 7
+AGIDL = 1.689e-07
+BGIDL = 2.879e+09
+CGIDL = 3.697
+EGIDL = -0.1135
+AIGBACC = 0.43
+BIGBACC = 0.054
+CIGBACC = 0.075
+NIGBACC = 0.5
+AIGBINV = 0.02
+BIGBINV = 0.008
+CIGBINV = 0.006
+EIGBINV = 1.1
+NIGBINV = 3
+AIGC = 0.0093013289
+LAIGC = 3.7241815e-11
+WAIGC = 7.5520239e-10
+PAIGC = -4.1900574e-17
+BIGC = 0.001803274
+CIGC = 0.079999995
+AIGSD = 0.0086236294
+BIGSD = 0.00066508585
+CIGSD = 0.01875
+NIGC = 1
+POXEDGE = 1.105647
+PIGCD = 2.1
+NTOX = 1
+XRCRG1 = 12
+XRCRG2 = 1.01
+CGSO = '50.74e-12*dcgsofactorn_hp+dcgson_hp'
+CGDO = '50.74e-12*dcgdofactorn_hp+dcgdon_hp'
+CGBO = 0
+CGDL = '47.7e-12*dcgdlfactorn_hp'
+CGSL = '47.7e-12*dcgslfactorn_hp'
+CLC = 0
+CLE = 0.6
+CF = '135.61e-12*dcffactorn_hp'
+CKAPPAS = 0.9
+CKAPPAD = 0.9
+VFBCV = -0.8940079
+ACDE = 1
+MOIN = 15
+NOFF = 2
+VOFFCV = 0
+KT1 = -0.20772887
+LKT1 = 3.8394077e-10
+WKT1 = 7.466853e-09
+PKT1 = -3.5706491e-16
+KT1L = -1.4584643e-11
+KT2 = -0.03
+UTE = -2.189973
+LUTE = 3.2360749e-08
+WUTE = 6.8947017e-07
+PUTE = -3.6828327e-14
+UA1 = 0
+UB1 = 0
+UC1 = 0
+PRT = 0
+AT = 50000
+FNOIMOD = 1
+TNOIMOD = 0
+JSS = 1.5e-5
+JSWS = 3e-11
+JSWGS = 1e-07
+NJS = 1.54
+IJTHSFWD = 0.1
+JSD = 1.5e-5
+JSWD = 3e-11
+JSWGD = 1e-07
+NJD = 1.54
+IJTHDFWD = 0.1
+PBS = 729.7e-3
+CJS = '1.27e-3*dcjfactorn_hp+dcjn_hp'
+MJS = 434.3e-3
+CJSWS = '(43.24e-12-25e-9*1.27e-3)*dcjfactorn_hp'
+MJSWS = 193.6e-3
+PBSWGS = 1.170
+CJSWGS = '336.8e-12*dcjfactorn_hp'
+MJSWGS = 643.9e-3
+PBD = 729.7e-3
+CJD = '1.27e-3*dcjfactorn_hp+dcjn_hp'
+MJD = 434.3e-3
+PBSWD = 1.0
+CJSWD = '(43.24e-12-25e-9*1.27e-3)*dcjfactorn_hp'
+MJSWD = 193.6e-3
+PBSWGD = 1.170
+CJSWGD = '336.8e-12*dcjfactorn_hp'
+MJSWGD = 643.9e-3
+TPB = 0
+TCJ = 0
+TPBSW = 0
+TCJSW = 0
+TPBSWG = 0
+TCJSWG = 0
+XTIS = 1.5
+XTID = 1.5
+DMCG = 0
+DMCI = 0
+DMDG = 0
+DMCGT = 0
+DWJ = '2.59200000e-08+ddwjn_hp'
+XGW = 0
+XGL = 0
+RSHG = 8
+GBMIN = 1e-12
+RBPB = 50
+RBPD = 50
+RBPS = 50
+RBDB = 50
+RBSB = 50
+NGCON = 1
+XL = '0.0+dxln_hp'
+XW = '0.0+dxwn_hp'
+EM = 4.1e+07
+EF = 0.9
+NOIA = 8.25e+41
+NOIB = 1e+25
+NOIC = 8.75
+NTNOI = 1
+PBSWS = 1.0
+saref   = 2.43e-006       sbref   = 2.43e-006       wlod    = 0               kvth0   = 2.24e-009     
+lkvth0  = -2.67e-8        wkvth0  = -2.46e-10       pkvth0  = 0               llodvth = 3.33e-1             
+wlodvth = 3.33e-1         stk2    = 4e-10           lodk2   = 1               lodeta0 = 1             
+ku0     = -2.13e-9        lku0    = 1.26e-7         wku0    = 1.12e-7         pku0    = 0             
+llodku0 = 2.0e-1          wlodku0 = 2.0e-1          kvsat   = 0               steta0  = -4e-10             
+tku0    = 0             
+web     = 1.68e2          wec     = 1.88e3          kvth0we = 1.33e-2         k2we    = 0
+ku0we   = -9.35e-3        scref   = 1e-6            
+wpemod  = 1
.MODEL NENHHP.401 NMOS
+LMIN = '9.00000000e-08+lminoffsetn_hp'
+LMAX = '9.30000000e-08+dlmaxn_hp'
+WMIN = '2.40000000e-07+dwminn4_hp'
+WMAX = '5.00000000e-07+dwmaxn4_hp'
+BINUNIT = 0
+LEVEL = 54
+VERSION = 4.5
+PARAMCHK = 0
+MOBMOD = 2
+CAPMOD = 2
+IGCMOD = 1
+IGBMOD = 1
+GEOMOD = 0
+DIOMOD = 1
+RDSMOD = 0
+RBODYMOD = 0
+RGATEMOD = 0
+PERMOD = 1
+ACNQSMOD = 0
+TRNQSMOD = 0
+TNOM = 23
+TOXE = '2.43e-09+dtoxn_hp'
+TOXP = '2.17e-09+dtoxn_hp'
+TOXM = 2.43e-09
+EPSROX = 3.9
+WINT = '3.59200000e-08+dwintn_hp'
+LINT = '2.10900000e-08+dlintn_hp'
+LL = 0
+WL = 0
+LLN = 1
+WLN = 1
+LW = 0
+WW = -9.454e-17
+LWN = 1
+WWN = 1.165
+LWL = 0
+WWL = 0
+LLC = 0
+WLC = 0
+LWC = 0
+WWC = -9.454e-17
+LWLC = 0
+WWLC = 0
+DLC = '2.75000000e-08+ddlcn_hp'
+DWC = '2.59200000e-08+ddwcn_hp'
+XPART = 0
+TOXREF = 2.43e-09
+DLCIG = 7.3824042e-09
+VTH0 = '0.59478745+dvth0n401_hp+(mcm_NENHHP_vth0*mcmScale)'
+LVTH0 = '-1.044021e-08+dlvth0n401_hp'
+WVTH0 = '-4.1887478e-08+dwvth0n401_hp'
+PVTH0 = '1.9321898e-15+dpvth0n401_hp'
+K1 = '0.652*dk1factorn_hp'
+K2 = '0.0073189607*dk2factorn_hp'
+LK2 = '-8.2402927e-09*dk2factorn_hp'
+WK2 = '-3.0459984e-08*dk2factorn_hp'
+PK2 = '1.4565964e-15*dk2factorn_hp'
+K3 = 0
+K3B = 0
+W0 = 0
+DVT0 = 0
+DVT1 = 0.56
+DVT2 = 0
+DVT0W = 0
+DVT1W = 5300000
+DVT2W = 0
+DSUB = 0.56
+MINV = 0
+VOFFL = 0
+DVTP0 = 0
+DVTP1 = 0
+LPE0 = 0
+LPEB = 0
+XJ = 1.5e-08
+NGATE = 9e+21
+NDEP = 6.5e+17
+NSD = 1e+20
+PHIN = 5.960465e-09
+CDSC = 0
+CDSCB = -0.015705601
+LCDSCB = 7.367335e-10
+WCDSCB = 2.3544754e-09
+PCDSCB = -1.2706805e-16
+CDSCD = 0
+CIT = 0
+VOFF = -0.080273192
+LVOFF = -4.709774e-09
+WVOFF = -1.3447541e-08
+PVOFF = 7.5392222e-16
+NFACTOR = -1.0161072
+LNFACTOR = 1.6456316e-07
+WNFACTOR = 5.1133064e-07
+PNFACTOR = -2.807109e-14
+ETA0 = -0.25975293
+LETA0 = 1.846252e-08
+WETA0 = 5.6022245e-08
+PETA0 = -3.2435881e-15
+ETAB = -0.1
+U0 = '(-0.0058703526*du0factorn_hp)*(((1+mcm_NENHHP_u0*mcmScale)-1)+1)'
+LU0 = '1.7153203e-09*du0factorn_hp'
+WU0 = '6.2998003e-09*du0factorn_hp'
+PU0 = '-3.0125645e-16*du0factorn_hp'
+UA = -5.0772913e-28
+WUA = 3.1109579e-34
+UB = 1e-19
+UC = -3.5023591e-27
+LUC = 1.5702458e-34
+WUC = 5.4352228e-34
+PUC = -2.5991235e-41
+EU = 2.9
+VSAT = '109262.62*dvsatfactorn_hp'
+LVSAT = '0.00026419528*dvsatfactorn_hp'
+WVSAT = '0.0052313971*dvsatfactorn_hp'
+PVSAT = '-1.8532859e-11*dvsatfactorn_hp'
+A0 = 3.0013844
+LA0 = -1.1291387e-07
+WA0 = -4.8084642e-07
+PA0 = 2.0098669e-14
+AGS = 0.7013625
+LAGS = -1.9230808e-08
+WAGS = 1.290114e-07
+PAGS = 8.3077092e-15
+A1 = 0
+A2 = 0.99
+B0 = 0
+B1 = 0
+KETA = 0.03274048
+LKETA = -8.0128283e-10
+WKETA = -1.1838874e-09
+PKETA = 3.4615418e-16
+DWG = 0
+DWB = 0
+PCLM = 0.7078744
+PDIBLC1 = 0
+PDIBLC2 = 0.04839062
+PDIBLCB = 0.2117339
+DROUT = 0.56
+PVAG = 0.3
+DELTA = 0.01
+PSCBE1 = 2.882151e+09
+PSCBE2 = 0.00025
+FPROUT = 0
+PDITS = 0.01
+PDITSD = 13.95184
+PDITSL = 0
+RSH = 9
+RDSW = 144.8038
+RSW = 72.4019
+RDW = 72.4019
+PRWG = 0
+PRWB = 0.3
+WR = 1
+ALPHA0 = 8e-10
+ALPHA1 = 3.309e-09
+BETA0 = 7
+AGIDL = 1.689e-07
+BGIDL = 2.879e+09
+CGIDL = 3.697
+EGIDL = -0.1135
+AIGBACC = 0.43
+BIGBACC = 0.054
+CIGBACC = 0.075
+NIGBACC = 0.5
+AIGBINV = 0.02
+BIGBINV = 0.008
+CIGBINV = 0.006
+EIGBINV = 1.1
+NIGBINV = 3
+AIGC = 0.011659719
+LAIGC = -1.0066082e-10
+WAIGC = -2.6362195e-10
+PAIGC = 1.7673363e-17
+BIGC = 0.001803274
+CIGC = 0.079999995
+AIGSD = 0.0086236294
+BIGSD = 0.00066508585
+CIGSD = 0.01875
+NIGC = 1
+POXEDGE = 1.105647
+PIGCD = 2.1
+NTOX = 1
+XRCRG1 = 12
+XRCRG2 = 1.01
+CGSO = '50.74e-12*dcgsofactorn_hp+dcgson_hp'
+CGDO = '50.74e-12*dcgdofactorn_hp+dcgdon_hp'
+CGBO = 0
+CGDL = '47.7e-12*dcgdlfactorn_hp'
+CGSL = '47.7e-12*dcgslfactorn_hp'
+CLC = 0
+CLE = 0.6
+CF = '135.61e-12*dcffactorn_hp'
+CKAPPAS = 0.9
+CKAPPAD = 0.9
+VFBCV = -0.8940079
+ACDE = 1
+MOIN = 15
+NOFF = 2
+VOFFCV = 0
+KT1 = -0.18395835
+LKT1 = -7.5276575e-10
+WKT1 = -2.8020139e-09
+PKT1 = 1.339923e-16
+KT1L = -1.4584643e-11
+KT2 = -0.03
+UTE = 0.064448897
+LUTE = -8.7727112e-08
+WUTE = -2.8444009e-07
+PUTE = 1.5049629e-14
+UA1 = 0
+UB1 = 0
+UC1 = 0
+PRT = 0
+AT = 50000
+FNOIMOD = 1
+TNOIMOD = 0
+JSS = 1.5e-5
+JSWS = 3e-11
+JSWGS = 1e-07
+NJS = 1.54
+IJTHSFWD = 0.1
+JSD = 1.5e-5
+JSWD = 3e-11
+JSWGD = 1e-07
+NJD = 1.54
+IJTHDFWD = 0.1
+PBS = 729.7e-3
+CJS = '1.27e-3*dcjfactorn_hp+dcjn_hp'
+MJS = 434.3e-3
+CJSWS = '(43.24e-12-25e-9*1.27e-3)*dcjfactorn_hp'
+MJSWS = 193.6e-3
+PBSWGS = 1.170
+CJSWGS = '336.8e-12*dcjfactorn_hp'
+MJSWGS = 643.9e-3
+PBD = 729.7e-3
+CJD = '1.27e-3*dcjfactorn_hp+dcjn_hp'
+MJD = 434.3e-3
+PBSWD = 1.0
+CJSWD = '(43.24e-12-25e-9*1.27e-3)*dcjfactorn_hp'
+MJSWD = 193.6e-3
+PBSWGD = 1.170
+CJSWGD = '336.8e-12*dcjfactorn_hp'
+MJSWGD = 643.9e-3
+TPB = 0
+TCJ = 0
+TPBSW = 0
+TCJSW = 0
+TPBSWG = 0
+TCJSWG = 0
+XTIS = 1.5
+XTID = 1.5
+DMCG = 0
+DMCI = 0
+DMDG = 0
+DMCGT = 0
+DWJ = '2.59200000e-08+ddwjn_hp'
+XGW = 0
+XGL = 0
+RSHG = 8
+GBMIN = 1e-12
+RBPB = 50
+RBPD = 50
+RBPS = 50
+RBDB = 50
+RBSB = 50
+NGCON = 1
+XL = '0.0+dxln_hp'
+XW = '0.0+dxwn_hp'
+EM = 4.1e+07
+EF = 0.9
+NOIA = 8.25e+41
+NOIB = 1e+25
+NOIC = 8.75
+NTNOI = 1
+PBSWS = 1.0
+saref   = 2.43e-006       sbref   = 2.43e-006       wlod    = 0               kvth0   = 2.24e-009     
+lkvth0  = -2.67e-8        wkvth0  = -2.46e-10       pkvth0  = 0               llodvth = 3.33e-1             
+wlodvth = 3.33e-1         stk2    = 4e-10           lodk2   = 1               lodeta0 = 1             
+ku0     = -2.13e-9        lku0    = 1.26e-7         wku0    = 1.12e-7         pku0    = 0             
+llodku0 = 2.0e-1          wlodku0 = 2.0e-1          kvsat   = 0               steta0  = -4e-10             
+tku0    = 0             
+web     = 1.68e2          wec     = 1.88e3          kvth0we = 1.33e-2         k2we    = 0
+ku0we   = -9.35e-3        scref   = 1e-6            
+wpemod  = 1
.MODEL NENHHP.501 NMOS
+LMIN = '9.00000000e-08+lminoffsetn_hp'
+LMAX = '9.30000000e-08+dlmaxn_hp'
+WMIN = '1.50000000e-07+dwminn5_hp'
+WMAX = '2.40000000e-07+dwmaxn5_hp'
+BINUNIT = 0
+LEVEL = 54
+VERSION = 4.5
+PARAMCHK = 0
+MOBMOD = 2
+CAPMOD = 2
+IGCMOD = 1
+IGBMOD = 1
+GEOMOD = 0
+DIOMOD = 1
+RDSMOD = 0
+RBODYMOD = 0
+RGATEMOD = 0
+PERMOD = 1
+ACNQSMOD = 0
+TRNQSMOD = 0
+TNOM = 23
+TOXE = '2.43e-09+dtoxn_hp'
+TOXP = '2.17e-09+dtoxn_hp'
+TOXM = 2.43e-09
+EPSROX = 3.9
+WINT = '3.59200000e-08+dwintn_hp'
+LINT = '2.10900000e-08+dlintn_hp'
+LL = 0
+WL = 0
+LLN = 1
+WLN = 1
+LW = 0
+WW = -9.454e-17
+LWN = 1
+WWN = 1.165
+LWL = 0
+WWL = 0
+LLC = 0
+WLC = 0
+LWC = 0
+WWC = -9.454e-17
+LWLC = 0
+WWLC = 0
+DLC = '2.75000000e-08+ddlcn_hp'
+DWC = '2.59200000e-08+ddwcn_hp'
+XPART = 0
+TOXREF = 2.43e-09
+DLCIG = 7.3824042e-09
+VTH0 = '0.38729287+dvth0n501_hp+(mcm_NENHHP_vth0*mcmScale)'
+LVTH0 = '7.3363057e-10+dlvth0n501_hp'
+WVTH0 = '-4.9534428e-09+dwvth0n501_hp'
+PVTH0 = '-5.6753861e-17+dpvth0n501_hp'
+K1 = '0.652*dk1factorn_hp'
+K2 = '-0.15671336*dk2factorn_hp'
+LK2 = '-1.2259846e-10*dk2factorn_hp'
+WK2 = '-1.2622308e-09*dk2factorn_hp'
+PK2 = '1.1646853e-17*dk2factorn_hp'
+K3 = 0
+K3B = 0
+W0 = 0
+DVT0 = 0
+DVT1 = 0.56
+DVT2 = 0
+DVT0W = 0
+DVT1W = 5300000
+DVT2W = 0
+DSUB = 0.56
+MINV = 0
+VOFFL = 0
+DVTP0 = 0
+DVTP1 = 0
+LPE0 = 0
+LPEB = 0
+XJ = 1.5e-08
+NGATE = 9e+21
+NDEP = 6.5e+17
+NSD = 1e+20
+PHIN = 5.960465e-09
+CDSC = 0
+CDSCB = -0.0032763619
+LCDSCB = 6.1035625e-11
+WCDSCB = 1.4207083e-10
+PCDSCB = -6.7938273e-18
+CDSCD = 0
+CIT = 0
+VOFF = -0.1651638
+LVOFF = -5.7691437e-10
+WVOFF = 1.6629871e-09
+PVOFF = 1.8273198e-17
+NFACTOR = 1.9463275
+LNFACTOR = 1.3513364e-08
+WNFACTOR = -1.5982746e-08
+PNFACTOR = -1.184226e-15
+ETA0 = 0.014894253
+LETA0 = 5.1494479e-10
+WETA0 = 7.135046e-09
+PETA0 = -4.8919755e-17
+ETAB = -0.1
+U0 = '(0.023753134*du0factorn_hp)*(((1+mcm_NENHHP_u0*mcmScale)-1)+1)'
+LU0 = '2.5056466e-11*du0factorn_hp'
+WU0 = '1.0268197e-09*du0factorn_hp'
+PU0 = '-3.8949375e-19*du0factorn_hp'
+UA = 1.24e-27
+UB = 1e-19
+UC = -6.1924858e-28
+LUC = 2.3604086e-35
+WUC = 3.0328615e-35
+PUC = -2.2423882e-42
+EU = 2.9
+VSAT = '111003.68*dvsatfactorn_hp'
+LVSAT = '0.00022336804*dvsatfactorn_hp'
+WVSAT = '0.0049214873*dvsatfactorn_hp'
+PVSAT = '-1.1265612e-11*dvsatfactorn_hp'
+A0 = 0.3
+AGS = 1.0702848
+LAGS = 4.445898e-08
+WAGS = 6.3343227e-08
+PAGS = -3.0290731e-15
+A1 = 0
+A2 = 0.99
+B0 = 0
+B1 = 0
+KETA = 0.11317974
+LKETA = 2.4521185e-09
+WKETA = -1.5502075e-08
+PKETA = -2.3295126e-16
+DWG = 0
+DWB = 0
+PCLM = 0.7078744
+PDIBLC1 = 0
+PDIBLC2 = 0.04839062
+PDIBLCB = 0.2117339
+DROUT = 0.56
+PVAG = 0.3
+DELTA = 0.01
+PSCBE1 = 2.882151e+09
+PSCBE2 = 0.00025
+FPROUT = 0
+PDITS = 0.01
+PDITSD = 13.95184
+PDITSL = 0
+RSH = 9
+RDSW = 144.8038
+RSW = 72.4019
+RDW = 72.4019
+PRWG = 0
+PRWB = 0.3
+WR = 1
+ALPHA0 = 8e-10
+ALPHA1 = 3.309e-09
+BETA0 = 7
+AGIDL = 1.689e-07
+BGIDL = 2.879e+09
+CGIDL = 3.697
+EGIDL = -0.1135
+AIGBACC = 0.43
+BIGBACC = 0.054
+CIGBACC = 0.075
+NIGBACC = 0.5
+AIGBINV = 0.02
+BIGBINV = 0.008
+CIGBINV = 0.006
+EIGBINV = 1.1
+NIGBINV = 3
+AIGC = 0.010315199
+LAIGC = -7.8442181e-13
+WAIGC = -2.4297437e-11
+PAIGC = -1.0463519e-19
+BIGC = 0.001803274
+CIGC = 0.079999995
+AIGSD = 0.0086236294