*simulator lang=spice

.SUBCKT NENHT33_S D G S B l=0 wpf=0 as=0 ad=0 ps=0 pd=0 nrs=0 nrd=0 simM=1 sa=0 sb=0 sc=0 sca=0 scb=0 scc=0  mcm_NENHT33_vth0=0 mcm_NENHT33_u0=0
** Pelgrom Scaling parameter **
.param mcmScale='1/sqrt(l*wpf)*1/sqrt(simM)'

.flat M0
M0 D G S B NENHT33  l=l w=wpf as=as ad=ad ps=ps pd=pd nrs=nrs nrd=nrd
+ m=simM sa=sa sb=sb sc=sc sca=sca scb=scb scc=scc


******************* GE33Mvt Slow NMOS and Fast PMOS ******************
*
* v1
*  Date 2005. 2. 7
*
.model  NENHT33.0  nmos  level = 54
+lmin    = 9.82e-007       lmax    = 1.001e-005      wmin    = 3e-006          wmax    = 0.00010001    
+version = 4.5             binunit = 1               paramchk= 1               mobmod  = 0             
+capmod  = 2               igcmod  = 1               igbmod  = 1               geomod  = 0             
+diomod  = 1               rdsmod  = 0               rbodymod= 0               rgatemod= 0             
+permod  = 1               acnqsmod= 0               trnqsmod= 0             
+noia    = 2.5e+41         noib    = 2.33e+25        noic    = 8.75
+em      = 4.1e+7          
+tnom    = 25              toxe    = 7.67e-009       toxp    = 7.47e-009       toxm    = 7.5e-009      
+epsrox  = 3.9             wint    = 4.25e-008       lint    = 3e-010          ll      = 0             
+wl      = 0               lln     = 1               wln     = 1               lw      = 0             
+ww      = 0               lwn     = 1               wwn     = 1               lwl     = 0             
+wwl     = 0               dlc     = 2.54e-008       dwc     = 4.1e-008        xl      = 0             
+xw      = 0               xpart   = 0               toxref  = 7.5e-009        dlcig   = 0             
+vth0    = '0.5564656+(mcm_NENHT33_vth0*mcmScale)'       lvth0   = -0.0044631548   wvth0   = -0.0043163701   pvth0   = 0.0094098371  
+k1      = 0.70234205      lk1     = 0.011356765     wk1     = 0.048207671     pk1     = -0.027109709  
+k2      = -0.0039558873   lk2     = -0.0011059872   wk2     = -0.0020092306   pk2     = 0.0012210062  
+k3      = 0               k3b     = 0               w0      = 0               dvt0    = 0             
+dvt1    = 0               dvt2    = 0               dvt0w   = 0               dvt1w   = 0             
+dvt2w   = 0               dsub    = 0.15            minv    = -0.41090444     lminv   = 0.10884162    
+wminv   = -1.1385972e-016  pminv   = 2.3647787e-016  voffl   = 0               dvtp0   = 0             
+dvtp1   = 0               lpe0    = 0               lpeb    = 0               lambda  = 0             
+llambda = 0               wlambda = 0               plambda = 0               lc      = 0             
+xn      = 3               lxn     = 0               wxn     = 0               pxn     = 0             
+vbm     = -3              xj      = 1.5e-007        ngate   = 1e+023          ndep    = 2.17e+017     
+nsd     = 1e+020          phin    = 0               cdsc    = 0               cdscb   = 0             
+cdscd   = 0               cit     = 0.00010352848   lcit    = 1.282201e-006   wcit    = 5.3387951e-006
+pcit    = -5.4826191e-006  voff    = -0.15869444     lvoff   = 0.014007972     wvoff   = -0.0091527005 
+pvoff   = -0.021529346    nfactor = 1               eta0    = 5e-005          etab    = -5e-005       
+u0      = '0.036989509*(((1+mcm_NENHT33_u0*mcmScale)-1)+1)'     lu0     = -0.0026191337   wu0     = -0.0073709555   pu0     = 0.0055724981  
+ua      = -5.9021915e-010  lua     = -2.8440495e-010  wua     = 1.3860528e-010  pua     = 7.5543301e-010
+ub      = 2.2541678e-018  lub     = 2.7061759e-019  wub     = -8.6363959e-019  pub     = -6.1117721e-019
+uc      = 7.1920778e-011  luc     = 1.3554529e-011  wuc     = -5.3813761e-011  puc     = 3.3524867e-011
+eu      = 1.67            vsat    = 86900           a0      = 0.75716805      la0     = 0.067660192   
+wa0     = 0.53461002      pa0     = -0.91204627     ags     = 0.21            a1      = 0             
+a2      = 0.99            b0      = 0               b1      = 0               keta    = -0.0037473712 
+lketa   = -0.01184071     wketa   = -0.0012709338   pketa   = 0.0013688572    dwg     = 0             
+dwb     = 0               pclm    = 0.5             pdiblc1 = 0.0001          pdiblc2 = 0.0001        
+pdiblcb = 0.01            drout   = 0.56            pvag    = 0.6             delta   = 0.01          
+pscbe1  = 3e+008          pscbe2  = 1e-006          fprout  = 0               pdits   = 0             
+pditsd  = 0               pditsl  = 0               rdsw    = 270             rdswmin = 0.0001        
+prwg    = 0               prwb    = 0               wr      = 1               alpha0  = 6e-007        
+alpha1  = 2.5             beta0   = 20              agidl   = 3e-008          bgidl   = 2.72e+009     
+cgidl   = 50              egidl   = 0.8             aigbacc = 1               bigbacc = 0             
+cigbacc = 0               nigbacc = 1               aigbinv = 1               bigbinv = 0             
+cigbinv = 0               eigbinv = 1.1             nigbinv = 3               aigc    = 1             
+bigc    = 0               cigc    = 0               aigsd   = 0.43            bigsd   = 0.054         
+cigsd   = 0.075           nigc    = 1               poxedge = 1               pigcd   = 1             
+ntox    = 1               xrcrg1  = 12              xrcrg2  = 1             
+cgso    = 1e-010          cgdo    = 1e-010          cgbo    = 1e-013          cgdl    = 1e-010        
+cgsl    = 1e-010          clc     = 1e-007          cle     = 0.6             ckappas = 0.6           
+ckappad = 0.6             vfbcv   = -1              acde    = 0.4             moin    = 15            
+noff    = 2               voffcv  = -0.05         
+kt1     = -0.3518         kt1l    = 0               kt2     = -0.02052        ute     = -0.73175567   
+lute    = -0.33241312     wute    = -0.71141525     pute    = 1.2281966       ua1     = 5.7700262e-009
+lua1    = -2.3031206e-009  wua1    = -2.7006412e-009  pua1    = 4.1658917e-009  ub1     = -6.6231053e-018
+lub1    = 2.1639067e-018  wub1    = 4.5999919e-019  pub1    = -7.9992311e-019  uc1     = -1.2288948e-010
+luc1    = 3.54358e-011    wuc1    = 1.2814319e-010  puc1    = -1.4695217e-010  prt     = 0             
+at      = 15000         
+jss     = 2.5e-006        jsws    = 4e-013          jswgs   = 2.5e-012        njs     = 1.15          
+ijthsfwd= 0.1             ijthsrev= 0.1             jsd     = 2.5e-006        jswd    = 4e-013        
+jswgd   = 2.5e-012        njd     = 1.15            ijthdfwd= 0.1             ijthdrev= 0.1           
+pbs     = 0.7911          cjs     = 0.001385        mjs     = 0.3392          pbsws   = 0.234         
+cjsws   = 5.324e-011      mjsws   = 0.03745         pbswgs  = 0.4806          cjswgs  = 4.601e-010    
+mjswgs  = 0.07873         pbd     = 0.7911          cjd     = 0.001385        mjd     = 0.3392        
+pbswd   = 0.234           cjswd   = 5.324e-011      mjswd   = 0.03745         pbswgd  = 0.4806        
+cjswgd  = 4.601e-010      mjswgd  = 0.07873         tpb     = 0.00168         tcj     = 0.0007745     
+tpbsw   = 0.0005562       tcjsw   = 0.0003175       tpbswg  = 0.001801        tcjswg  = 0.0005604     
+xtis    = 1.5             xtid    = 1.5           
+tnoimod = 0
+fnoimod = 0               ef      = 0.89            kf      = 1.0e-23         af      = 2
+saref   = 2.43e-006       sbref   = 2.43e-006       wlod    = 0               kvth0   = 2.24e-009     
+lkvth0  = -2.67e-8        wkvth0  = -2.46e-10       pkvth0  = 0               llodvth = 3.33e-1             
+wlodvth = 3.33e-1         stk2    = 4e-10           lodk2   = 1               lodeta0 = 1             
+ku0     = -2.13e-9        lku0    = 1.26e-7         wku0    = 1.12e-7         pku0    = 0             
+llodku0 = 2.0e-1          wlodku0 = 2.0e-1          kvsat   = 0               steta0  = -4e-10             
+tku0    = 0             
+web     = 1.68e2         wec     = 1.88e3         kvth0we = 1.33e-2         k2we    = 0
+ku0we   = -9.35e-3        scref   = 1e-6
+wpemod  = 1
.model  NENHT33.1  nmos  level = 54
+lmin    = 6.92e-007       lmax    = 9.82e-007       wmin    = 3e-006          wmax    = 0.00010001    
+version = 4.5             binunit = 1               paramchk= 1               mobmod  = 0             
+capmod  = 2               igcmod  = 1               igbmod  = 1               geomod  = 0             
+diomod  = 1               rdsmod  = 0               rbodymod= 0               rgatemod= 0             
+permod  = 1               acnqsmod= 0               trnqsmod= 0             
+noia    = 2.5e+41         noib    = 2.33e+25        noic    = 8.75
+em      = 4.1e+7          
+tnom    = 25              toxe    = 7.67e-009       toxp    = 7.47e-009       toxm    = 7.5e-009      
+epsrox  = 3.9             wint    = 4.25e-008       lint    = 3e-010          ll      = 0             
+wl      = 0               lln     = 1               wln     = 1               lw      = 0             
+ww      = 0               lwn     = 1               wwn     = 1               lwl     = 0             
+wwl     = 0               dlc     = 2.54e-008       dwc     = 4.1e-008        xl      = 0             
+xw      = 0               xpart   = 0               toxref  = 7.5e-009        dlcig   = 0             
+vth0    = '0.56141123+(mcm_NENHT33_vth0*mcmScale)'      lvth0   = -0.0093167925   wvth0   = -0.0028217994   pvth0   = 0.0079430654  
+k1      = 0.72087533      lk1     = -0.0068317884   wk1     = 0.093255144     pk1     = -0.071319299  
+k2      = -0.0049480148   lk2     = -0.00013231328  wk2     = -0.00074176214  pk2     = -2.2887274e-005
+k3      = 0               k3b     = 0               w0      = 0               dvt0    = 0             
+dvt1    = 0               dvt2    = 0               dvt0w   = 0               dvt1w   = 0             
+dvt2w   = 0               dsub    = 0.15            minv    = -0.53841379     lminv   = 0.2339793     
+wminv   = -3.2380354e-016  pminv   = -4.209446e-015  voffl   = 0               dvtp0   = 0             
+dvtp1   = 0               lpe0    = 0               lpeb    = 0               lambda  = 0             
+llambda = 0               wlambda = 0               plambda = 0               lc      = 0             
+xn      = 3               lxn     = 0               wxn     = 0               pxn     = 0             
+vbm     = -3              xj      = 1.5e-007        ngate   = 1e+023          ndep    = 2.17e+017     
+nsd     = 1e+020          phin    = 0               cdsc    = 0               cdscb   = 0             
+cdscd   = 0               cit     = 0.00010485879   lcit    = -2.3357501e-008  wcit    = -1.0654613e-006
+pcit    = 8.0251818e-007  voff    = -0.15005443     lvoff   = 0.0055286679    wvoff   = -0.065445483  
+pvoff   = 0.03371639      nfactor = 1               eta0    = -0.0035810502   leta0   = 0.0035635126  
+weta0   = -1.5178291e-017  peta0   = -1.2648576e-017  etab    = 0.0035810502    letab   = -0.0035635126 
+wetab   = 1.5178291e-017  petab   = 1.2648576e-017  u0      = '0.031388587*(((1+mcm_NENHT33_u0*mcmScale)-1)+1)'     lu0     = 0.0028776111  
+wu0     = 0.0042134603    pu0     = -0.0057964477   ua      = -7.4964826e-010  lua     = -1.2794122e-010
+wua     = 1.483236e-009   pua     = -5.6418757e-010  ub      = 2.1842483e-018  lub     = 3.3923655e-019
+wub     = -8.9576965e-019  pub     = -5.7964477e-019  uc      = 3.5345846e-011  luc     = 4.9449168e-011
+wuc     = 1.2534627e-010  puc     = -1.4230279e-010  eu      = 1.67            vsat    = 92034.818     
+lvsat   = -5039.3104      wvsat   = 6.7906524e-010  pvsat   = 6.7906524e-010  a0      = 0.65882053    
+la0     = 0.16417844      wa0     = -0.37262633     pa0     = -0.021684511    ags     = 0.21          
+a1      = 0               a2      = 0.99            b0      = 0               b1      = 0             
+keta    = -0.020643049    lketa   = 0.0047407078    wketa   = 0.0080167376    pketa   = -0.0077460635 
+dwg     = 0               dwb     = 0               pclm    = 0.5             pdiblc1 = 0.0001        
+pdiblc2 = -0.00019341822  lpdiblc2= 0.00028796064   wpdiblc2= 1.8972864e-018  ppdiblc2= -3.7945727e-018
+pdiblcb = 0.01            drout   = 0.56            pvag    = 0.6             delta   = 0.01          
+pscbe1  = 3e+008          pscbe2  = 1e-006          fprout  = 0               pdits   = 0             
+pditsd  = 0               pditsl  = 0               rdsw    = 270             rdswmin = 0.0001        
+prwg    = 0               prwb    = 0               wr      = 1               alpha0  = 6e-007        
+alpha1  = 2.5             beta0   = 20              agidl   = 3e-008          bgidl   = 2.72e+009     
+cgidl   = 50              egidl   = 0.8             aigbacc = 1               bigbacc = 0             
+cigbacc = 0               nigbacc = 1               aigbinv = 1               bigbinv = 0             
+cigbinv = 0               eigbinv = 1.1             nigbinv = 3               aigc    = 1             
+bigc    = 0               cigc    = 0               aigsd   = 0.43            bigsd   = 0.054         
+cigsd   = 0.075           nigc    = 1               poxedge = 1               pigcd   = 1             
+ntox    = 1               xrcrg1  = 12              xrcrg2  = 1             
+cgso    = 1e-010          cgdo    = 1e-010          cgbo    = 1e-013          cgdl    = 1e-010        
+cgsl    = 1e-010          clc     = 1e-007          cle     = 0.6             ckappas = 0.6           
+ckappad = 0.6             vfbcv   = -1              acde    = -0.040127311    lacde   = 0.43194094    
+wacde   = -3.8856424e-015  pacde   = -6.4760707e-016  moin    = 15              noff    = 0.53290904    
+lnoff   = 1.4398031       wnoff   = 1.554257e-014   pnoff   = -5.1808566e-015  voffcv  = 0.023354553   
+lvoffcv = -0.071990158    wvoffcv = 9.7141061e-016  pvoffcv = 9.7141061e-016
+kt1     = -0.3518         kt1l    = 0               kt2     = -0.02052        ute     = -0.8760058    
+lute    = -0.19084605     wute    = 0.75752188      pute    = -0.21341834     ua1     = 3.5178611e-009
+lua1    = -9.2845752e-011  wua1    = 3.282694e-009   pua1    = -1.7061535e-009  ub1     = -3.785554e-018
+lub1    = -6.2086621e-019  wub1    = -2.278327e-018  pub1    = 1.8874702e-018  uc1     = -5.7436489e-011
+luc1    = -2.8799761e-011  wuc1    = -9.407155e-011  puc1    = 7.1129378e-011  prt     = 0             
+at      = 15000         
+jss     = 2.5e-006        jsws    = 4e-013          jswgs   = 2.5e-012        njs     = 1.15          
+ijthsfwd= 0.1             ijthsrev= 0.1             jsd     = 2.5e-006        jswd    = 4e-013        
+jswgd   = 2.5e-012        njd     = 1.15            ijthdfwd= 0.1             ijthdrev= 0.1           
+pbs     = 0.7911          cjs     = 0.001385        mjs     = 0.3392          pbsws   = 0.234         
+cjsws   = 5.324e-011      mjsws   = 0.03745         pbswgs  = 0.4806          cjswgs  = 4.601e-010    
+mjswgs  = 0.07873         pbd     = 0.7911          cjd     = 0.001385        mjd     = 0.3392        
+pbswd   = 0.234           cjswd   = 5.324e-011      mjswd   = 0.03745         pbswgd  = 0.4806        
+cjswgd  = 4.601e-010      mjswgd  = 0.07873         tpb     = 0.00168         tcj     = 0.0007745     
+tpbsw   = 0.0005562       tcjsw   = 0.0003175       tpbswg  = 0.001801        tcjswg  = 0.0005604     
+xtis    = 1.5             xtid    = 1.5           
+tnoimod = 0
+fnoimod = 0               ef      = 0.89            kf      = 1.0e-23         af      = 2
+saref   = 2.43e-006       sbref   = 2.43e-006       wlod    = 0               kvth0   = 2.24e-009     
+lkvth0  = -2.67e-8        wkvth0  = -2.46e-10       pkvth0  = 0               llodvth = 3.33e-1             
+wlodvth = 3.33e-1         stk2    = 4e-10           lodk2   = 1               lodeta0 = 1             
+ku0     = -2.13e-9        lku0    = 1.26e-7         wku0    = 1.12e-7         pku0    = 0             
+llodku0 = 2.0e-1          wlodku0 = 2.0e-1          kvsat   = 0               steta0  = -4e-10             
+tku0    = 0             
+web     = 1.68e2         wec     = 1.88e3         kvth0we = 1.33e-2         k2we    = 0
+ku0we   = -9.35e-3        scref   = 1e-6
+wpemod  = 1
.model  NENHT33.2  nmos  level = 54
+lmin    = 4.204e-007      lmax    = 6.92e-007       wmin    = 3e-006          wmax    = 0.00010001    
+version = 4.5             binunit = 1               paramchk= 1               mobmod  = 0             
+capmod  = 2               igcmod  = 1               igbmod  = 1               geomod  = 0             
+diomod  = 1               rdsmod  = 0               rbodymod= 0               rgatemod= 0             
+permod  = 1               acnqsmod= 0               trnqsmod= 0             
+noia    = 2.5e+41         noib    = 2.33e+25        noic    = 8.75
+em      = 4.1e+7          
+tnom    = 25              toxe    = 7.67e-009       toxp    = 7.47e-009       toxm    = 7.5e-009      
+epsrox  = 3.9             wint    = 4.25e-008       lint    = 3e-010          ll      = 0             
+wl      = 0               lln     = 1               wln     = 1               lw      = 0             
+ww      = 0               lwn     = 1               wwn     = 1               lwl     = 0             
+wwl     = 0               dlc     = 2.54e-008       dwc     = 4.1e-008        xl      = 0             
+xw      = 0               xpart   = 0               toxref  = 7.5e-009        dlcig   = 0             
+vth0    = '0.57086408+(mcm_NENHT33_vth0*mcmScale)'      lvth0   = -0.015852492    wvth0   = -0.031860465    pvth0   = 0.028020399   
+k1      = 0.78908703      lk1     = -0.053993364    wk1     = -0.079395485    pk1     = 0.048051346   
+k2      = -0.004942709    lk2     = -0.00013598174  wk2     = -0.00074084399  pk2     = -2.3522085e-005
+k3      = 0               k3b     = 0               w0      = 0               dvt0    = 0             
+dvt1    = 0               dvt2    = 0               dvt0w   = 0               dvt1w   = 0             
+dvt2w   = 0               dsub    = 0.15            minv    = -0.35456554     lminv   = 0.10686661    
+wminv   = -4.0528643e-016  pminv   = 2.7019095e-016  voffl   = 0               dvtp0   = 0             
+dvtp1   = 0               lpe0    = 0               lpeb    = 0               lambda  = 0             
+llambda = 0               wlambda = 0               plambda = 0               lc      = 0             
+xn      = 3               lxn     = 0               wxn     = 0               pxn     = 0             
+vbm     = -3              xj      = 1.5e-007        ngate   = 1e+023          ndep    = 2.17e+017     
+nsd     = 1e+020          phin    = 0               cdsc    = 0               cdscb   = 0             
+cdscd   = 0               cit     = 0.00010485971   lcit    = -2.3994753e-008  wcit    = -1.0977039e-006
+pcit    = 8.248107e-007   voff    = -0.15349443     lvoff   = 0.0079070858    wvoff   = -0.034888185  
+pvoff   = 0.012589074     nfactor = 1               eta0    = -0.0037239523   leta0   = 0.0036623152  
+weta0   = -4.2217337e-018  peta0   = 4.2217337e-018  etab    = 0.0037239523    letab   = -0.0036623152 
+wetab   = 4.2217337e-018  petab   = -4.2217337e-018  u0      = '0.031252887*(((1+mcm_NENHT33_u0*mcmScale)-1)+1)'     lu0     = 0.0029714338  
+wu0     = 0.0045729425    pu0     = -0.0060449936   ua      = -7.4489147e-010  lua     = -1.3123006e-010
+wua     = 1.5070786e-009  pua     = -5.8067238e-010  ub      = 2.240509e-018   lub     = 3.0033793e-019
+wub     = -2.8062826e-018  pub     = 7.4128389e-019  uc      = 9.2945546e-011  luc     = 9.6247354e-012
+wuc     = -1.3784479e-010  puc     = 3.9667513e-011  eu      = 1.67            vsat    = 92236.903     
+lvsat   = -5179.0318      wvsat   = -2.1248681e-010  a0      = 1.2579914       la0     = -0.25008826   
+wa0     = 0.059047427     pa0     = -0.32014375     ags     = 0.21            a1      = 0             
+a2      = 0.99            b0      = 0               b1      = 0               keta    = -0.020833152  
+lketa   = 0.0048721452    wketa   = 0.0083273547    pketa   = -0.0079608242   dwg     = 0             
+dwb     = 0               pclm    = 0.5             pdiblc1 = 0.0001          pdiblc2 = -0.00020496582
+lpdiblc2= 0.00029594465   wpdiblc2= -1.5831501e-018  ppdiblc2= -7.9157506e-019  pdiblcb = 0.01          
+drout   = 0.56            pvag    = 0.6             delta   = 0.01            pscbe1  = 3e+008        
+pscbe2  = 1e-006          fprout  = 0               pdits   = 0               pditsd  = 0             
+pditsl  = 0               rdsw    = 270             rdswmin = 0.0001          prwg    = 0             
+prwb    = 0               wr      = 1               alpha0  = 6e-007          alpha1  = 2.5           
+beta0   = 20              agidl   = 3e-008          bgidl   = 2.72e+009       cgidl   = 50            
+egidl   = 0.8             aigbacc = 1               bigbacc = 0               cigbacc = 0             
+nigbacc = 1               aigbinv = 1               bigbinv = 0               cigbinv = 0             
+eigbinv = 1.1             nigbinv = 3               aigc    = 1               bigc    = 0             
+cigc    = 0               aigsd   = 0.43            bigsd   = 0.054           cigsd   = 0.075         
+nigc    = 1               poxedge = 1               pigcd   = 1               ntox    = 1             
+xrcrg1  = 12              xrcrg2  = 1             
+cgso    = 1e-010          cgdo    = 1e-010          cgbo    = 1e-013          cgdl    = 1e-010        
+cgsl    = 1e-010          clc     = 1e-007          cle     = 0.6             ckappas = 0.6           
+ckappad = 0.6             vfbcv   = -1              acde    = -0.057448747    lacde   = 0.44391698    
+wacde   = -4.3230553e-015  pacde   = 1.0807638e-015  moin    = 15              noff    = 0.47517076    
+lnoff   = 1.4797233       wnoff   = -5.1876663e-014  pnoff   = -1.2969166e-014  voffcv  = 0.026241457   
+lvoffcv = -0.073986164    wvoffcv = 1.0807638e-015  pvoffcv = -6.0792965e-016
+kt1     = -0.3518         kt1l    = 0               kt2     = -0.02052        ute     = -0.86835224   
+lute    = -0.19613772     wute    = 0.76607926      pute    = -0.21933492     ua1     = 3.5215843e-009
+lua1    = -9.5419935e-011  wua1    = 3.3511145e-009  pua1    = -1.7534594e-009  ub1     = -3.7606562e-018
+lub1    = -6.3808048e-019  wub1    = -2.354017e-018  pub1    = 1.9398023e-018  uc1     = -5.6281581e-011
+luc1    = -2.9598265e-011  wuc1    = -9.6923954e-011  puc1    = 7.310153e-011   prt     = 0             
+at      = 15000         
+jss     = 2.5e-006        jsws    = 4e-013          jswgs   = 2.5e-012        njs     = 1.15          
+ijthsfwd= 0.1             ijthsrev= 0.1             jsd     = 2.5e-006        jswd    = 4e-013        
+jswgd   = 2.5e-012        njd     = 1.15            ijthdfwd= 0.1             ijthdrev= 0.1           
+pbs     = 0.7911          cjs     = 0.001385        mjs     = 0.3392          pbsws   = 0.234         
+cjsws   = 5.324e-011      mjsws   = 0.03745         pbswgs  = 0.4806          cjswgs  = 4.601e-010    
+mjswgs  = 0.07873         pbd     = 0.7911          cjd     = 0.001385        mjd     = 0.3392        
+pbswd   = 0.234           cjswd   = 5.324e-011      mjswd   = 0.03745         pbswgd  = 0.4806        
+cjswgd  = 4.601e-010      mjswgd  = 0.07873         tpb     = 0.00168         tcj     = 0.0007745     
+tpbsw   = 0.0005562       tcjsw   = 0.0003175       tpbswg  = 0.001801        tcjswg  = 0.0005604     
+xtis    = 1.5             xtid    = 1.5           
+tnoimod = 0
+fnoimod = 0               ef      = 0.89            kf      = 1.0e-23         af      = 2
+saref   = 2.43e-006       sbref   = 2.43e-006       wlod    = 0               kvth0   = 2.24e-009     
+lkvth0  = -2.67e-8        wkvth0  = -2.46e-10       pkvth0  = 0               llodvth = 3.33e-1             
+wlodvth = 3.33e-1         stk2    = 4e-10           lodk2   = 1               lodeta0 = 1             
+ku0     = -2.13e-9        lku0    = 1.26e-7         wku0    = 1.12e-7         pku0    = 0             
+llodku0 = 2.0e-1          wlodku0 = 2.0e-1          kvsat   = 0               steta0  = -4e-10             
+tku0    = 0             
+web     = 1.68e2         wec     = 1.88e3         kvth0we = 1.33e-2         k2we    = 0
+ku0we   = -9.35e-3        scref   = 1e-6
+wpemod  = 1
.model  NENHT33.3  nmos  level = 54
+lmin    = 3.574e-007      lmax    = 4.204e-007      wmin    = 3e-006          wmax    = 0.00010001    
+version = 4.5             binunit = 1               paramchk= 1               mobmod  = 0             
+capmod  = 2               igcmod  = 1               igbmod  = 1               geomod  = 0             
+diomod  = 1               rdsmod  = 0               rbodymod= 0               rgatemod= 0             
+permod  = 1               acnqsmod= 0               trnqsmod= 0             
+noia    = 2.5e+41         noib    = 2.33e+25        noic    = 8.75
+em      = 4.1e+7          
+tnom    = 25              toxe    = 7.67e-009       toxp    = 7.47e-009       toxm    = 7.5e-009      
+epsrox  = 3.9             wint    = 4.25e-008       lint    = 3e-010          ll      = 0             
+wl      = 0               lln     = 1               wln     = 1               lw      = 0             
+ww      = 0               lwn     = 1               wwn     = 1               lwl     = 0             
+wwl     = 0               dlc     = 2.54e-008       dwc     = 4.1e-008        xl      = 0             
+xw      = 0               xpart   = 0               toxref  = 7.5e-009        dlcig   = 0             
+vth0    = '0.58614129+(mcm_NENHT33_vth0*mcmScale)'      lvth0   = -0.022265865    wvth0   = 0.096439844     pvth0   = -0.025840071  
+k1      = 0.80187584      lk1     = -0.059362107    wk1     = 0.3241761       pk1     = -0.121368     
+k2      = -0.0027077459   lk2     = -0.0010742193   wk2     = -0.0093951473   pk2     = 0.0036095545  
+k3      = 0               k3b     = 0               w0      = 0               dvt0    = 0             
+dvt1    = 0               dvt2    = 0               dvt0w   = 0               dvt1w   = 0             
+dvt2w   = 0               dsub    = 0.15            minv    = -0.1            voffl   = 0             
+dvtp0   = 0               dvtp1   = 0               lpe0    = 0               lpeb    = 0             
+lambda  = 0               llambda = 0               wlambda = 0               plambda = 0             
+lc      = 0               xn      = 3               lxn     = 0               wxn     = 0             
+pxn     = 0               vbm     = -3              xj      = 1.5e-007        ngate   = 1e+023        
+ndep    = 2.17e+017       nsd     = 1e+020          phin    = 0               cdsc    = 0             
+cdscb   = 0               cdscd   = 0               cit     = 0.00012430915   lcit    = -8.1888723e-006
+wcit    = -7.0687764e-005  pcit    = 3.0038718e-005  voff    = -0.13318755     lvoff   = -0.00061774254
+wvoff   = -0.032981448    pvoff   = 0.011788626     nfactor = 1               eta0    = -0.0063269841 
+leta0   = 0.0047550679    weta0   = -8.3583431e-017  peta0   = -4.1791716e-017  etab    = -0.005        
+u0      = '0.04111325*(((1+mcm_NENHT33_u0*mcmScale)-1)+1)'      lu0     = -0.0011679466   wu0     = -0.051450155    pu0     = 0.017473503   
+ua      = -7.2724978e-010  lua     = -1.3863604e-010  wua     = -2.0835765e-009  pua     = 9.2668464e-010
+ub      = 2.1198468e-018  lub     = 3.5099194e-019  wub     = 2.700949e-018   pub     = -1.5706519e-018
+uc      = 4.0218562e-011  luc     = 3.1759523e-011  wuc     = 3.8106502e-010  puc     = -1.7817083e-010
+eu      = 1.67            vsat    = 95943.864       lvsat   = -6735.2141      wvsat   = -46767.863    
+pvsat   = 19633.149       a0      = 3.0085629       la0     = -0.98497819     wa0     = -6.2058019    
+pa0     = 2.30984         ags     = 0.21            a1      = 0               a2      = 0.99          
+b0      = 0               b1      = 0               keta    = 0.014189747     lketa   = -0.0098304678 
+wketa   = -0.11871655     pketa   = 0.045372207     dwg     = 0               dwb     = 0             
+pclm    = 0.5             pdiblc1 = 0.0001          pdiblc2 = 0.0005          pdiblcb = 0.01          
+drout   = 0.56            pvag    = 0.6             delta   = 0.01            pscbe1  = 3e+008        
+pscbe2  = 1e-006          fprout  = 0               pdits   = 0               pditsd  = 0             
+pditsl  = 0               rdsw    = 270             rdswmin = 0.0001          prwg    = 0             
+prwb    = 0               wr      = 1               alpha0  = 6e-007          alpha1  = 2.5           
+beta0   = 20              agidl   = 3e-008          bgidl   = 2.72e+009       cgidl   = 50            
+egidl   = 0.8             aigbacc = 1               bigbacc = 0               cigbacc = 0             
+nigbacc = 1               aigbinv = 1               bigbinv = 0               cigbinv = 0             
+eigbinv = 1.1             nigbinv = 3               aigc    = 1               bigc    = 0             
+cigc    = 0               aigsd   = 0.43            bigsd   = 0.054           cigsd   = 0.075         
+nigc    = 1               poxedge = 1               pigcd   = 1               ntox    = 1             
+xrcrg1  = 12              xrcrg2  = 1             
+cgso    = 1e-010          cgdo    = 1e-010          cgbo    = 1e-013          cgdl    = 1e-010        
+cgsl    = 1e-010          clc     = 1e-007          cle     = 0.6             ckappas = 0.6           
+ckappad = 0.6             vfbcv   = -1              acde    = 1               moin    = 15            
+noff    = 4               voffcv  = -0.15         
+kt1     = -0.3518         kt1l    = 0               kt2     = -0.02052        ute     = -1.8088633    