*simulator lang=spice

.SUBCKT NENHT33_S D G S B l=0 wpf=0 as=0 ad=0 ps=0 pd=0 nrs=0 nrd=0 simM=1 sa=0 sb=0 sc=0 sca=0 scb=0 scc=0 mcm_NENHT33_vth0=0 mcm_NENHT33_u0=0
** Pelgrom Scaling parameter **
.param mcmScale='1/sqrt(l*wpf)*1/sqrt(simM)'

.flat M0
M0 D G S B NENHT33  l=l w=wpf as=as ad=ad ps=ps pd=pd nrs=nrs nrd=nrd
+ m=simM sa=sa sb=sb sc=sc sca=sca scb=scb scc=scc

******************* GE33Mvt Fast NMOS and Fast PMOS ******************
*
* v1
*  Date 2005. 2. 7
*
.model  NENHT33.0  nmos  level = 54
+lmin    = 9.82e-007       lmax    = 1.001e-005      wmin    = 3e-006          wmax    = 0.00010001    
+version = 4.5             binunit = 1               paramchk= 1               mobmod  = 0             
+capmod  = 2               igcmod  = 1               igbmod  = 1               geomod  = 0             
+diomod  = 1               rdsmod  = 0               rbodymod= 0               rgatemod= 0             
+permod  = 1               acnqsmod= 0               trnqsmod= 0             
+tnoimod = 0
+fnoimod = 0               ef      = 0.89            kf      = 1.0e-23         af      = 2
+noia    = 2.5e+41         noib    = 2.33e+25        noic    = 8.75
+em      = 4.1e+7          
+tnom    = 25              toxe    = 7.25e-009       toxp    = 7.05e-009       toxm    = 7.5e-009      
+epsrox  = 3.9             wint    = 2.28e-008       lint    = 2.23e-008       ll      = 0             
+wl      = 0               lln     = 1               wln     = 1               lw      = 0             
+ww      = 0               lwn     = 1               wwn     = 1               lwl     = 0             
+wwl     = 0               dlc     = 4.2e-008        dwc     = 2.6e-008        xl      = 0             
+xw      = 0               xpart   = 0               toxref  = 7.5e-009        dlcig   = 0             
+vth0    = '0.51836346+(mcm_NENHT33_vth0*mcmScale)'      lvth0   = -0.003382772    wvth0   = -0.0034739046   pvth0   = 0.00040828262 
+k1      = 0.70232751      lk1     = 0.010834922     wk1     = 0.048929509     pk1     = -0.026232408  
+k2      = -0.0039581236   lk2     = -0.0010533275   wk2     = -0.0020388994   pk2     = 0.0011814931  
+k3      = 0               k3b     = 0               w0      = 0               dvt0    = 0             
+dvt1    = 0               dvt2    = 0               dvt0w   = 0               dvt1w   = 0             
+dvt2w   = 0               dsub    = 0.15            minv    = -0.41041556     lminv   = 0.10350354    
+wminv   = 4.428403e-016   pminv   = 1.0578963e-015  voffl   = 0               dvtp0   = 0             
+dvtp1   = 0               lpe0    = 0               lpeb    = 0               lambda  = 0             
+llambda = 0               wlambda = 0               plambda = 0               lc      = 0             
+xn      = 3               lxn     = 0               wxn     = 0               pxn     = 0             
+vbm     = -3              xj      = 1.5e-007        ngate   = 1e+023          ndep    = 2.17e+017     
+nsd     = 1e+020          phin    = 0               cdsc    = 0               cdscb   = 0             
+cdscd   = 0               cit     = 0.000103527     lcit    = 1.2264235e-006  wcit    = 5.4073992e-006
+pcit    = -5.3051954e-006  voff    = -0.15861891     lvoff   = 0.013348868     wvoff   = -0.0094116744 
+pvoff   = -0.020832633    nfactor = 1               eta0    = 5e-005          etab    = -5e-005       
+u0      = '0.036987758*(((1+mcm_NENHT33_u0*mcmScale)-1)+1)'     lu0     = -0.0024979036   wu0     = -0.0074748006   pu0     = 0.0053921658  
+ua      = -5.916902e-010  lua     = -2.7143577e-010  wua     = 1.4448968e-010  pua     = 7.3098635e-010
+ub      = 2.2565644e-018  lub     = 2.581376e-019   wub     = -8.8158451e-019  pub     = -5.9139883e-019
+uc      = 7.2054816e-011  luc     = 1.2846294e-011  wuc     = -5.4604631e-011  puc     = 3.2439965e-011
+eu      = 1.67            vsat    = 86900           a0      = 0.75674876      la0     = 0.065524172   
+wa0     = 0.53982055      pa0     = -0.88253143     ags     = 0.18            a1      = 0             
+a2      = 0.99            b0      = 0               b1      = 0               keta    = -0.0037988325 
+lketa   = -0.011261764    wketa   = -0.0012869744   pketa   = 0.0013245594    dwg     = 0             
+dwb     = 0               pclm    = 0.5             pdiblc1 = 0.0001          pdiblc2 = 0.0001        
+pdiblcb = 0.01            drout   = 0.56            pvag    = 0.6             delta   = 0.01          
+pscbe1  = 3e+008          pscbe2  = 1e-006          fprout  = 0               pdits   = 0             
+pditsd  = 0               pditsl  = 0               rdsw    = 270             rdswmin = 0.0001        
+prwg    = 0               prwb    = 0               wr      = 1               alpha0  = 6e-007        
+alpha1  = 2.5             beta0   = 20              agidl   = 3e-008          bgidl   = 2.72e+009     
+cgidl   = 50              egidl   = 0.8             aigbacc = 1               bigbacc = 0             
+cigbacc = 0               nigbacc = 1               aigbinv = 1               bigbinv = 0             
+cigbinv = 0               eigbinv = 1.1             nigbinv = 3               aigc    = 1             
+bigc    = 0               cigc    = 0               aigsd   = 0.43            bigsd   = 0.054         
+cigsd   = 0.075           nigc    = 1               poxedge = 1               pigcd   = 1             
+ntox    = 1               xrcrg1  = 12              xrcrg2  = 1             
+cgso    = 1e-010          cgdo    = 1e-010          cgbo    = 1e-013          cgdl    = 1e-010        
+cgsl    = 1e-010          clc     = 1e-007          cle     = 0.6             ckappas = 0.6           
+ckappad = 0.6             vfbcv   = -1              acde    = 0.4             moin    = 15            
+noff    = 2               voffcv  = -0.05         
+kt1     = -0.3518         kt1l    = 0               kt2     = -0.02052        ute     = -0.7322865    
+lute    = -0.31770228     wute    = -0.71828263     pute    = 1.1884507       ua1     = 5.7633373e-009
+lua1    = -2.1955657e-009  wua1    = -2.7289803e-009  pua1    = 4.0310788e-009  ub1     = -6.6140078e-018
+lub1    = 2.058816e-018   wub1    = 4.6441323e-019  pub1    = -7.7403671e-019  uc1     = -1.2290409e-010
+luc1    = 3.3888373e-011  wuc1    = 1.2971965e-010  puc1    = -1.4219663e-010  prt     = 0             
+at      = 15000         
+jss     = 2.5e-006        jsws    = 4e-013          jswgs   = 2.5e-012        njs     = 1.15          
+ijthsfwd= 0.1             ijthsrev= 0.1             jsd     = 2.5e-006        jswd    = 4e-013        
+jswgd   = 2.5e-012        njd     = 1.15            ijthdfwd= 0.1             ijthdrev= 0.1           
+pbs     = 0.7911          cjs     = 0.001385        mjs     = 0.3392          pbsws   = 0.234         
+cjsws   = 5.324e-011      mjsws   = 0.03745         pbswgs  = 0.4806          cjswgs  = 4.601e-010    
+mjswgs  = 0.07873         pbd     = 0.7911          cjd     = 0.001385        mjd     = 0.3392        
+pbswd   = 0.234           cjswd   = 5.324e-011      mjswd   = 0.03745         pbswgd  = 0.4806        
+cjswgd  = 4.601e-010      mjswgd  = 0.07873         tpb     = 0.00168         tcj     = 0.0007745     
+tpbsw   = 0.0005562       tcjsw   = 0.0003175       tpbswg  = 0.001801        tcjswg  = 0.0005604     
+xtis    = 1.5             xtid    = 1.5           
+saref   = 2.43e-006       sbref   = 2.43e-006       wlod    = 0               kvth0   = 2.24e-009     
+lkvth0  = -2.67e-8        wkvth0  = -2.46e-10       pkvth0  = 0               llodvth = 3.33e-1             
+wlodvth = 3.33e-1         stk2    = 4e-10           lodk2   = 1               lodeta0 = 1             
+ku0     = -2.13e-9        lku0    = 1.26e-7         wku0    = 1.12e-7         pku0    = 0             
+llodku0 = 2.0e-1          wlodku0 = 2.0e-1          kvsat   = 0               steta0  = -4e-10             
+tku0    = 0             
+web     = 1.68e2         wec     = 1.88e3         kvth0we = 1.33e-2         k2we    = 0
+ku0we   = -9.35e-3        scref   = 1e-6
+wpemod  = 1
.model  NENHT33.1  nmos  level = 54
+lmin    = 6.92e-007       lmax    = 9.82e-007       wmin    = 3e-006          wmax    = 0.00010001    
+version = 4.5             binunit = 1               paramchk= 1               mobmod  = 0             
+capmod  = 2               igcmod  = 1               igbmod  = 1               geomod  = 0             
+diomod  = 1               rdsmod  = 0               rbodymod= 0               rgatemod= 0             
+permod  = 1               acnqsmod= 0               trnqsmod= 0             
+tnoimod = 0
+fnoimod = 0               ef      = 0.89            kf      = 1.0e-23         af      = 2
+noia    = 2.5e+41         noib    = 2.33e+25        noic    = 8.75
+em      = 4.1e+7          
+tnom    = 25              toxe    = 7.25e-009       toxp    = 7.05e-009       toxm    = 7.5e-009      
+epsrox  = 3.9             wint    = 2.28e-008       lint    = 2.23e-008       ll      = 0             
+wl      = 0               lln     = 1               wln     = 1               lw      = 0             
+ww      = 0               lwn     = 1               wwn     = 1               lwl     = 0             
+wwl     = 0               dlc     = 4.2e-008        dwc     = 2.6e-008        xl      = 0             
+xw      = 0               xpart   = 0               toxref  = 7.5e-009        dlcig   = 0             
+vth0    = '0.52271213+(mcm_NENHT33_vth0*mcmScale)'      lvth0   = -0.0074592159   wvth0   = -0.0013707532   pvth0   = -0.0015632115 
+k1      = 0.72031149      lk1     = -0.0060232619   wk1     = 0.090185349     pk1     = -0.064905632  
+k2      = -0.0049555815   lk2     = -0.00011831048  wk2     = -0.00075628562  pk2     = -2.0829046e-005
+k3      = 0               k3b     = 0               w0      = 0               dvt0    = 0             
+dvt1    = 0               dvt2    = 0               dvt0w   = 0               dvt1w   = 0             
+dvt2w   = 0               dsub    = 0.15            minv    = -0.52324138     lminv   = 0.20926647    
+wminv   = 3.2182033e-015  pminv   = 8.0455082e-016  voffl   = 0               dvtp0   = 0             
+dvtp1   = 0               lpe0    = 0               lpeb    = 0               lambda  = 0             
+llambda = 0               wlambda = 0               plambda = 0               lc      = 0             
+xn      = 3               lxn     = 0               wxn     = 0               pxn     = 0             
+vbm     = -3              xj      = 1.5e-007        ngate   = 1e+023          ndep    = 2.17e+017     
+nsd     = 1e+020          phin    = 0               cdsc    = 0               cdscb   = 0             
+cdscd   = 0               cit     = 0.00010485865   lcit    = -2.1868946e-008  wcit    = -1.0312011e-006
+pcit    = 7.303486e-007   voff    = -0.14960969     lvoff   = 0.0049036233    wvoff   = -0.064368944  
+pvoff   = 0.030684312     nfactor = 1               eta0    = -0.0033499738   leta0   = 0.0031871354  
+weta0   = -8.3807378e-018  peta0   = 8.3807378e-018  etab    = 0.0033499738    letab   = -0.0031871354 
+wetab   = 8.3807378e-018  petab   = -8.3807378e-018  u0      = '0.031569954*(((1+mcm_NENHT33_u0*mcmScale)-1)+1)'     lu0     = 0.0025807458  
+wu0     = 0.0039049149    pu0     = -0.0052751795   ua      = -7.5991672e-010  lua     = -1.1374022e-010
+wua     = 1.4720309e-009  pua     = -5.134508e-010  ub      = 2.2075185e-018  lub     = 3.0411321e-019
+wub     = -9.4973139e-019  pub     = -5.2751795e-019  uc      = 3.8394088e-011  luc     = 4.4399861e-011
+wuc     = 1.1815579e-010  puc     = -1.2950566e-010  eu      = 1.67            vsat    = 91708.043     
+lvsat   = -4507.0598      wvsat   = -1.1248436e-009  pvsat   = 4.2181634e-010  a0      = 0.66997659    
+la0     = 0.1468644       wa0     = -0.38059441     pa0     = -0.019734446    ags     = 0.18          
+a1      = 0               a2      = 0.99            b0      = 0               b1      = 0             
+keta    = -0.020345881    lketa   = 0.0042494398    wketa   = 0.007646275     pketa   = -0.0070494685 
+dwg     = 0               dwb     = 0               pclm    = 0.5             pdiblc1 = 0.0001        
+pdiblc2 = -0.00017474538  lpdiblc2= 0.00025754632   wpdiblc2= 5.2379611e-019  ppdiblc2= 5.2379611e-019
+pdiblcb = 0.01            drout   = 0.56            pvag    = 0.6             delta   = 0.01          
+pscbe1  = 3e+008          pscbe2  = 1e-006          fprout  = 0               pdits   = 0             
+pditsd  = 0               pditsl  = 0               rdsw    = 270             rdswmin = 0.0001        
+prwg    = 0               prwb    = 0               wr      = 1               alpha0  = 6e-007        
+alpha1  = 2.5             beta0   = 20              agidl   = 3e-008          bgidl   = 2.72e+009     
+cgidl   = 50              egidl   = 0.8             aigbacc = 1               bigbacc = 0             
+cigbacc = 0               nigbacc = 1               aigbinv = 1               bigbinv = 0             
+cigbinv = 0               eigbinv = 1.1             nigbinv = 3               aigc    = 1             
+bigc    = 0               cigc    = 0               aigsd   = 0.43            bigsd   = 0.054         
+cigsd   = 0.075           nigc    = 1               poxedge = 1               pigcd   = 1             
+ntox    = 1               xrcrg1  = 12              xrcrg2  = 1             
+cgso    = 1e-010          cgdo    = 1e-010          cgbo    = 1e-013          cgdl    = 1e-010        
+cgsl    = 1e-010          clc     = 1e-007          cle     = 0.6             ckappas = 0.6           
+ckappad = 0.6             vfbcv   = -1              acde    = -0.012118052    lacde   = 0.38631946    
+pacde   = -4.2909377e-015  moin    = 15              noff    = 0.62627323      lnoff   = 1.2877315     
+wnoff   = 1.7163751e-014  pnoff   = 3.0036564e-014  voffcv  = 0.018686343     lvoffcv = -0.064386578  
+wvoffcv = -8.0455082e-016  pvoffcv = -1.340918e-016
+kt1     = -0.3518         kt1l    = 0               kt2     = -0.02052        ute     = -0.88939503   
+lute    = -0.17042873     wute    = 0.75672975      pute    = -0.19422587     ua1     = 3.5075163e-009
+lua1    = -8.0959209e-011  wua1    = 3.2277081e-009  pua1    = -1.5527209e-009  ub1     = -3.8228751e-018
+lub1    = -5.5759176e-019  wub1    = -2.193757e-018  pub1    = 1.7177321e-018  uc1     = -5.9182061e-011
+luc1    = -2.5844662e-011  wuc1    = -9.1028609e-011  puc1    = 6.4732791e-011  prt     = 0             
+at      = 15000         
+jss     = 2.5e-006        jsws    = 4e-013          jswgs   = 2.5e-012        njs     = 1.15          
+ijthsfwd= 0.1             ijthsrev= 0.1             jsd     = 2.5e-006        jswd    = 4e-013        
+jswgd   = 2.5e-012        njd     = 1.15            ijthdfwd= 0.1             ijthdrev= 0.1           
+pbs     = 0.7911          cjs     = 0.001385        mjs     = 0.3392          pbsws   = 0.234         
+cjsws   = 5.324e-011      mjsws   = 0.03745         pbswgs  = 0.4806          cjswgs  = 4.601e-010    
+mjswgs  = 0.07873         pbd     = 0.7911          cjd     = 0.001385        mjd     = 0.3392        
+pbswd   = 0.234           cjswd   = 5.324e-011      mjswd   = 0.03745         pbswgd  = 0.4806        
+cjswgd  = 4.601e-010      mjswgd  = 0.07873         tpb     = 0.00168         tcj     = 0.0007745     
+tpbsw   = 0.0005562       tcjsw   = 0.0003175       tpbswg  = 0.001801        tcjswg  = 0.0005604     
+xtis    = 1.5             xtid    = 1.5           
+saref   = 2.43e-006       sbref   = 2.43e-006       wlod    = 0               kvth0   = 2.24e-009     
+lkvth0  = -2.67e-8        wkvth0  = -2.46e-10       pkvth0  = 0               llodvth = 3.33e-1             
+wlodvth = 3.33e-1         stk2    = 4e-10           lodk2   = 1               lodeta0 = 1             
+ku0     = -2.13e-9        lku0    = 1.26e-7         wku0    = 1.12e-7         pku0    = 0             
+llodku0 = 2.0e-1          wlodku0 = 2.0e-1          kvsat   = 0               steta0  = -4e-10             
+tku0    = 0             
+web     = 1.68e2         wec     = 1.88e3         kvth0we = 1.33e-2         k2we    = 0
+ku0we   = -9.35e-3        scref   = 1e-6
+wpemod  = 1
.model  NENHT33.2  nmos  level = 54
+lmin    = 4.204e-007      lmax    = 6.92e-007       wmin    = 3e-006          wmax    = 0.00010001    
+version = 4.5             binunit = 1               paramchk= 1               mobmod  = 0             
+capmod  = 2               igcmod  = 1               igbmod  = 1               geomod  = 0             
+diomod  = 1               rdsmod  = 0               rbodymod= 0               rgatemod= 0             
+permod  = 1               acnqsmod= 0               trnqsmod= 0             
+tnoimod = 0
+fnoimod = 0               ef      = 0.89            kf      = 1.0e-23         af      = 2
+noia    = 2.5e+41         noib    = 2.33e+25        noic    = 8.75
+em      = 4.1e+7          
+tnom    = 25              toxe    = 7.25e-009       toxp    = 7.05e-009       toxm    = 7.5e-009      
+epsrox  = 3.9             wint    = 2.28e-008       lint    = 2.23e-008       ll      = 0             
+wl      = 0               lln     = 1               wln     = 1               lw      = 0             
+ww      = 0               lwn     = 1               wwn     = 1               lwl     = 0             
+wwl     = 0               dlc     = 4.2e-008        dwc     = 2.6e-008        xl      = 0             
+xw      = 0               xpart   = 0               toxref  = 7.5e-009        dlcig   = 0             
+vth0    = '0.53118077+(mcm_NENHT33_vth0*mcmScale)'      lvth0   = -0.012941814    wvth0   = -0.034887986    pvth0   = 0.020135845   
+k1      = 0.78100029      lk1     = -0.045313188    wk1     = -0.073376312    pk1     = 0.040984187   
+k2      = -0.0049623082   lk2     = -0.00011395564  wk2     = -0.00075746955  pk2     = -2.0062571e-005
+k3      = 0               k3b     = 0               w0      = 0               dvt0    = 0             
+dvt1    = 0               dvt2    = 0               dvt0w   = 0               dvt1w   = 0             
+dvt2w   = 0               dsub    = 0.15            minv    = -0.33836524     lminv   = 0.089577658   
+wminv   = -5.8967619e-016  pminv   = -6.8795556e-016  voffl   = 0               dvtp0   = 0             
+dvtp1   = 0               lpe0    = 0               lpeb    = 0               lambda  = 0             
+llambda = 0               wlambda = 0               plambda = 0               lc      = 0             
+xn      = 3               lxn     = 0               wxn     = 0               pxn     = 0             
+vbm     = -3              xj      = 1.5e-007        ngate   = 1e+023          ndep    = 2.17e+017     
+nsd     = 1e+020          phin    = 0               cdsc    = 0               cdscb   = 0             
+cdscd   = 0               cit     = 0.0001048574    lcit    = -2.1055356e-008  wcit    = -9.8973211e-007
+pcit    = 7.0350154e-007  voff    = -0.15225081     lvoff   = 0.0066134868    wvoff   = -0.033558351  
+pvoff   = 0.010737534     nfactor = 1               eta0    = -0.0031687688   leta0   = 0.0030698233  
+peta0   = 6.1424603e-018  etab    = 0.0031687688    letab   = -0.0030698233   petab   = -6.1424603e-018
+u0      = '0.031698353*(((1+mcm_NENHT33_u0*mcmScale)-1)+1)'     lu0     = 0.0024976206    wu0     = 0.0037207101    pu0     = -0.0051559253 
+ua      = -7.6671958e-010  lua     = -1.0933605e-010  wua     = 1.443948e-009   pua     = -4.952699e-010
+ub      = 2.2897107e-018  lub     = 2.50902e-019    wub     = -2.7411701e-018  pub     = 6.3225945e-019
+uc      = 9.4584309e-011  luc     = 8.022312e-012   wuc     = -1.3414427e-010  puc     = 3.3833408e-011
+eu      = 1.67            vsat    = 91451.795       lvsat   = -4341.1644      wvsat   = 3.0916015e-010
+pvsat   = 5.1526692e-011  a0      = 1.2200652       la0     = -0.20926299     wa0     = 0.010700169   
+pa0     = -0.27305856     ags     = 0.18            a1      = 0               a2      = 0.99          
+b0      = 0               b1      = 0               keta    = -0.020104273    lketa   = 0.0040930228  
+wketa   = 0.007245466     pketa   = -0.0067899848   dwg     = 0               dwb     = 0             
+pclm    = 0.5             pdiblc1 = 0.0001          pdiblc2 = -0.00016010251  lpdiblc2= 0.00024806652 
+wpdiblc2= -1.9195189e-018  ppdiblc2= 3.8390377e-019  pdiblcb = 0.01            drout   = 0.56          
+pvag    = 0.6             delta   = 0.01            pscbe1  = 3e+008          pscbe2  = 1e-006        
+fprout  = 0               pdits   = 0               pditsd  = 0               pditsl  = 0             
+rdsw    = 270             rdswmin = 0.0001          prwg    = 0               prwb    = 0             
+wr      = 1               alpha0  = 6e-007          alpha1  = 2.5             beta0   = 20            
+agidl   = 3e-008          bgidl   = 2.72e+009       cgidl   = 50              egidl   = 0.8           
+aigbacc = 1               bigbacc = 0               cigbacc = 0               nigbacc = 1             
+aigbinv = 1               bigbinv = 0               cigbinv = 0               eigbinv = 1.1           
+nigbinv = 3               aigc    = 1               bigc    = 0               cigc    = 0             
+aigsd   = 0.43            bigsd   = 0.054           cigsd   = 0.075           nigc    = 1             
+poxedge = 1               pigcd   = 1               ntox    = 1               xrcrg1  = 12            
+xrcrg2  = 1             
+cgso    = 1e-010          cgdo    = 1e-010          cgbo    = 1e-013          cgdl    = 1e-010        
+cgsl    = 1e-010          clc     = 1e-007          cle     = 0.6             ckappas = 0.6           
+ckappad = 0.6             vfbcv   = -1              acde    = 0.0098462266    lacde   = 0.37209979    
+wacde   = 3.9311746e-015  pacde   = 7.8623492e-016  moin    = 15              noff    = 0.69948734    
+lnoff   = 1.2403327       wnoff   = 3.1449397e-015  pnoff   = 9.4348191e-015  voffcv  = 0.015025628   
+lvoffcv = -0.062016631    wvoffcv = 5.8967619e-016  pvoffcv = -2.948381e-016
+kt1     = -0.3518         kt1l    = 0               kt2     = -0.02052        ute     = -0.89908447   
+lute    = -0.16415579     wute    = 0.74568609      pute    = -0.1870762      ua1     = 3.5029133e-009
+lua1    = -7.7979198e-011  wua1    = 3.1394291e-009  pua1    = -1.4955691e-009  ub1     = -3.854577e-018
+lub1    = -5.3706794e-019  wub1    = -2.0960948e-018  pub1    = 1.6545056e-018  uc1     = -6.0651467e-011
+luc1    = -2.4893368e-011  wuc1    = -8.7348227e-011  puc1    = 6.2350111e-011  prt     = 0             
+at      = 15000         
+jss     = 2.5e-006        jsws    = 4e-013          jswgs   = 2.5e-012        njs     = 1.15          
+ijthsfwd= 0.1             ijthsrev= 0.1             jsd     = 2.5e-006        jswd    = 4e-013        
+jswgd   = 2.5e-012        njd     = 1.15            ijthdfwd= 0.1             ijthdrev= 0.1           
+pbs     = 0.7911          cjs     = 0.001385        mjs     = 0.3392          pbsws   = 0.234         
+cjsws   = 5.324e-011      mjsws   = 0.03745         pbswgs  = 0.4806          cjswgs  = 4.601e-010    
+mjswgs  = 0.07873         pbd     = 0.7911          cjd     = 0.001385        mjd     = 0.3392        
+pbswd   = 0.234           cjswd   = 5.324e-011      mjswd   = 0.03745         pbswgd  = 0.4806        
+cjswgd  = 4.601e-010      mjswgd  = 0.07873         tpb     = 0.00168         tcj     = 0.0007745     
+tpbsw   = 0.0005562       tcjsw   = 0.0003175       tpbswg  = 0.001801        tcjswg  = 0.0005604     
+xtis    = 1.5             xtid    = 1.5           
+saref   = 2.43e-006       sbref   = 2.43e-006       wlod    = 0               kvth0   = 2.24e-009     
+lkvth0  = -2.67e-8        wkvth0  = -2.46e-10       pkvth0  = 0               llodvth = 3.33e-1             
+wlodvth = 3.33e-1         stk2    = 4e-10           lodk2   = 1               lodeta0 = 1             
+ku0     = -2.13e-9        lku0    = 1.26e-7         wku0    = 1.12e-7         pku0    = 0             
+llodku0 = 2.0e-1          wlodku0 = 2.0e-1          kvsat   = 0               steta0  = -4e-10             
+tku0    = 0             
+web     = 1.68e2         wec     = 1.88e3         kvth0we = 1.33e-2         k2we    = 0
+ku0we   = -9.35e-3        scref   = 1e-6
+wpemod  = 1
.model  NENHT33.3  nmos  level = 54
+lmin    = 3.574e-007      lmax    = 4.204e-007      wmin    = 3e-006          wmax    = 0.00010001    
+version = 4.5             binunit = 1               paramchk= 1               mobmod  = 0             
+capmod  = 2               igcmod  = 1               igbmod  = 1               geomod  = 0             
+diomod  = 1               rdsmod  = 0               rbodymod= 0               rgatemod= 0             
+permod  = 1               acnqsmod= 0               trnqsmod= 0             
+tnoimod = 0
+fnoimod = 0               ef      = 0.89            kf      = 1.0e-23         af      = 2
+noia    = 2.5e+41         noib    = 2.33e+25        noic    = 8.75
+em      = 4.1e+7          
+tnom    = 25              toxe    = 7.25e-009       toxp    = 7.05e-009       toxm    = 7.5e-009      
+epsrox  = 3.9             wint    = 2.28e-008       lint    = 2.23e-008       ll      = 0             
+wl      = 0               lln     = 1               wln     = 1               lw      = 0             
+ww      = 0               lwn     = 1               wwn     = 1               lwl     = 0             
+wwl     = 0               dlc     = 4.2e-008        dwc     = 2.6e-008        xl      = 0             
+xw      = 0               xpart   = 0               toxref  = 7.5e-009        dlcig   = 0             
+vth0    = '0.54107214+(mcm_NENHT33_vth0*mcmScale)'      lvth0   = -0.016658989    wvth0   = 0.094462555     pvth0   = -0.028474088  
+k1      = 0.7840446       lk1     = -0.046457241    wk1     = 0.29358542      pk1     = -0.096920034  
+k2      = -0.0030119411   lk2     = -0.0008469036   wk2     = -0.0084810466   pk2     = 0.0028824577  
+k3      = 0               k3b     = 0               w0      = 0               dvt0    = 0             
+dvt1    = 0               dvt2    = 0               dvt0w   = 0               dvt1w   = 0             
+dvt2w   = 0               dsub    = 0.15            minv    = -0.1            voffl   = 0             
+dvtp0   = 0               dvtp1   = 0               lpe0    = 0               lpeb    = 0             
+lambda  = 0               llambda = 0               wlambda = 0               plambda = 0             
+lc      = 0               xn      = 3               lxn     = 0               wxn     = 0             
+pxn     = 0               vbm     = -3              xj      = 1.5e-007        ngate   = 1e+023        
+ndep    = 2.17e+017       nsd     = 1e+020          phin    = 0               cdsc    = 0             
+cdscb   = 0               cdscd   = 0               cit     = 0.00012198796   lcit    = -6.458723e-006
+wcit    = -6.2949062e-005  pcit    = 2.3987818e-005  voff    = -0.13332878     lvoff   = -0.00049741329
+wvoff   = -0.030036345    pvoff   = 0.0094139642    nfactor = 1               eta0    = -0.0049301587 
+leta0   = 0.0037317537    weta0   = 1.0660287e-016  peta0   = 5.3301433e-017  etab    = -0.005        
+u0      = '0.0408333*(((1+mcm_NENHT33_u0*mcmScale)-1)+1)'       lu0     = -0.00093529262  wu0     = -0.047129804    pu0     = 0.013953698   
+ua      = -7.6550555e-010  lua     = -1.0979229e-010  wua     = -1.8431362e-009  pua     = 7.4001634e-010
+ub      = 2.2198994e-018  lub     = 2.7713709e-019  wub     = 2.2788524e-018  pub     = -1.254265e-018
+uc      = 4.9099958e-011  luc     = 2.5115331e-011  wuc     = 3.3449354e-010  puc     = -1.4228068e-010
+eu      = 1.67            vsat    = 94021.253       lvsat   = -5306.7669      wvsat   = -41719.83     
+pvsat   = 15678.312       a0      = 2.7267554       la0     = -0.77547715     wa0     = -5.6242439    
+pa0     = 1.8445534       ags     = 0.18            a1      = 0               a2      = 0.99          
+b0      = 0               b1      = 0               keta    = 0.011445664     lketa   = -0.0077634435 
+wketa   = -0.10723714     pketa   = 0.03623258      dwg     = 0               dwb     = 0             
+pclm    = 0.5             pdiblc1 = 0.0001          pdiblc2 = 0.0005          pdiblcb = 0.01          
+drout   = 0.56            pvag    = 0.6             delta   = 0.01            pscbe1  = 3e+008        
+pscbe2  = 1e-006          fprout  = 0               pdits   = 0               pditsd  = 0             
+pditsl  = 0               rdsw    = 270             rdswmin = 0.0001          prwg    = 0             
+prwb    = 0               wr      = 1               alpha0  = 6e-007          alpha1  = 2.5           
+beta0   = 20              agidl   = 3e-008          bgidl   = 2.72e+009       cgidl   = 50            
+egidl   = 0.8             aigbacc = 1               bigbacc = 0               cigbacc = 0             
+nigbacc = 1               aigbinv = 1               bigbinv = 0               cigbinv = 0             
+eigbinv = 1.1             nigbinv = 3               aigc    = 1               bigc    = 0             
+cigc    = 0               aigsd   = 0.43            bigsd   = 0.054           cigsd   = 0.075         
+nigc    = 1               poxedge = 1               pigcd   = 1               ntox    = 1             
+xrcrg1  = 12              xrcrg2  = 1             
+cgso    = 1e-010          cgdo    = 1e-010          cgbo    = 1e-013          cgdl    = 1e-010        
+cgsl    = 1e-010          clc     = 1e-007          cle     = 0.6             ckappas = 0.6           
+ckappad = 0.6             vfbcv   = -1              acde    = 1               moin    = 15            
+noff    = 4               voffcv  = -0.15         