*simulator lang=spice

.SUBCKT NENHT33_S D G S B l=0 wpf=0 as=0 ad=0 ps=0 pd=0 nrs=0 nrd=0 simM=1 sa=0 sb=0 sc=0 sca=0 scb=0 scc=0 mcm_NENHT33_vth0=0 mcm_NENHT33_u0=0
** Pelgrom Scaling parameter **
.param mcmScale='1/sqrt(l*wpf)*1/sqrt(simM)'

.flat M0
M0 D G S B NENHT33  l=l w=wpf as=as ad=ad ps=ps pd=pd nrs=nrs nrd=nrd
+ m=simM sa=sa sb=sb sc=sc sca=sca scb=scb scc=scc


******************* GE33Mvt Wafer NMOS and Wafer PMOS ******************
*
* v1
*  Date 2005. 2. 7
*
.model  NENHT33.0  nmos  level = 54
+lmin    = 9.82e-007       lmax    = 1.001e-005      wmin    = 3e-006          wmax    = 0.00010001    
+version = 4.5             binunit = 1               paramchk= 1               mobmod  = 0             
+capmod  = 2               igcmod  = 1               igbmod  = 1               geomod  = 0             
+diomod  = 1               rdsmod  = 0               rbodymod= 0               rgatemod= 0             
+permod  = 1               acnqsmod= 0               trnqsmod= 0             
+noia    = 2.5e+41         noib    = 2.33e+25        noic    = 8.75
+em      = 4.1e+7          
+tnom    = 25              toxe    = 7.5e-009        toxp    = 7.3e-009        toxm    = 7.5e-009      
+epsrox  = 3.9             wint    = 3.5e-008        lint    = 1e-008          ll      = 0             
+wl      = 0               lln     = 1               wln     = 1               lw      = 0             
+ww      = 0               lwn     = 1               wwn     = 1               lwl     = 0             
+wwl     = 0               dlc     = 3.2e-008        dwc     = 3.5e-008        xl      = 0             
+xw      = 0               xpart   = 0               toxref  = 7.5e-009        dlcig   = 0             
+vth0    = '0.54835211+(mcm_NENHT33_vth0*mcmScale)'      lvth0   = -0.0033063761   wvth0   = -0.0043263849   pvth0   = 0.0092672695  
+k1      = 0.70233955      lk1     = 0.011124396     wk1     = 0.048474997     pk1     = -0.026698972  
+k2      = -0.0039570362   lk2     = -0.0010826373   wk2     = -0.0020201907   pk2     = 0.0012025069  
+k3      = 0               k3b     = 0               w0      = 0               dvt0    = 0             
+dvt1    = 0               dvt2    = 0               dvt0w   = 0               dvt1w   = 0             
+dvt2w   = 0               dsub    = 0.15            minv    = -0.41068889     lminv   = 0.10648271    
+wminv   = 2.5485161e-017  pminv   = -2.5485161e-016  voffl   = 0               dvtp0   = 0             
+dvtp1   = 0               lpe0    = 0               lpeb    = 0               lambda  = 0             
+llambda = 0               wlambda = 0               plambda = 0               lc      = 0             
+xn      = 3               lxn     = 0               wxn     = 0               pxn     = 0             
+vbm     = -3              xj      = 1.5e-007        ngate   = 1e+023          ndep    = 2.17e+017     
+nsd     = 1e+020          phin    = 0               cdsc    = 0               cdscb   = 0             
+cdscd   = 0               cit     = 0.00010352826   lcit    = 1.2571957e-006  wcit    = 5.3634555e-006
+pcit    = -5.3995524e-006  voff    = -0.15866192     lvoff   = 0.013715311     wvoff   = -0.0092566385 
+pvoff   = -0.021203157    nfactor = 1               eta0    = 5e-005          etab    = -5e-005       
+u0      = '0.036988141*(((1+mcm_NENHT33_u0*mcmScale)-1)+1)'     lu0     = -0.0025651989   wu0     = -0.007408984    pu0     = 0.0054880696  
+ua      = -5.9085511e-010  lua     = -2.7862464e-010  wua     = 1.4103536e-010  pua     = 7.4398751e-010
+ub      = 2.2551526e-018  lub     = 2.6506285e-019  wub     = -8.7061547e-019  pub     = -6.0191732e-019
+uc      = 7.1975517e-011  luc     = 1.3243742e-011  wuc     = -5.410567e-011  puc     = 3.3016935e-011
+eu      = 1.67            vsat    = 85000           a0      = 0.75702553      la0     = 0.066656886   
+wa0     = 0.53635566      pa0     = -0.89822793     ags     = 0.2             a1      = 0             
+a2      = 0.99            b0      = 0               b1      = 0               keta    = -0.003770163  
+lketa   = -0.011584783    wketa   = -0.0012766774   pketa   = 0.0013481178    dwg     = 0             
+dwb     = 0               pclm    = 0.5             pdiblc1 = 0.0001          pdiblc2 = 0.0001        
+pdiblcb = 0.01            drout   = 0.56            pvag    = 0.6             delta   = 0.01          
+pscbe1  = 3e+008          pscbe2  = 1e-006          fprout  = 0               pdits   = 0             
+pditsd  = 0               pditsl  = 0               rdsw    = 270             rdswmin = 0.0001        
+prwg    = 0               prwb    = 0               wr      = 1               alpha0  = 6e-007        
+alpha1  = 2.5             beta0   = 20              agidl   = 3e-008          bgidl   = 2.72e+009     
+cgidl   = 50              egidl   = 0.8             aigbacc = 1               bigbacc = 0             
+cigbacc = 0               nigbacc = 1               aigbinv = 1               bigbinv = 0             
+cigbinv = 0               eigbinv = 1.1             nigbinv = 3               aigc    = 1             
+bigc    = 0               cigc    = 0               aigsd   = 0.43            bigsd   = 0.054         
+cigsd   = 0.075           nigc    = 1               poxedge = 1               pigcd   = 1             
+ntox    = 1               xrcrg1  = 12              xrcrg2  = 1             
+cgso    = 1e-010          cgdo    = 1e-010          cgbo    = 1e-013          cgdl    = 1e-010        
+cgsl    = 1e-010          clc     = 1e-007          cle     = 0.6             ckappas = 0.6           
+ckappad = 0.6             vfbcv   = -1              acde    = 0.4             moin    = 15            
+noff    = 2               voffcv  = -0.05         
+kt1     = -0.3518         kt1l    = 0               kt2     = -0.02052        ute     = -0.73204604   
+lute    = -0.32583238     wute    = -0.71370926     pute    = 1.2095883       ua1     = 5.7668623e-009
+lua1    = -2.2553206e-009  wua1    = -2.7103396e-009  pua1    = 4.1027746e-009  ub1     = -6.6190577e-018
+lub1    = 2.1174148e-018  wub1    = 4.6147098e-019  pub1    = -7.8780355e-019  uc1     = -1.2288565e-010
+luc1    = 3.4742418e-011  wuc1    = 1.2870448e-010  puc1    = -1.4472571e-010  prt     = 0             
+at      = 15000         
+jss     = 2.5e-006        jsws    = 4e-013          jswgs   = 2.5e-012        njs     = 1.15          
+ijthsfwd= 0.1             ijthsrev= 0.1             jsd     = 2.5e-006        jswd    = 4e-013        
+jswgd   = 2.5e-012        njd     = 1.15            ijthdfwd= 0.1             ijthdrev= 0.1           
+pbs     = 0.7911          cjs     = 0.001385        mjs     = 0.3392          pbsws   = 0.234         
+cjsws   = 5.324e-011      mjsws   = 0.03745         pbswgs  = 0.4806          cjswgs  = 4.601e-010    
+mjswgs  = 0.07873         pbd     = 0.7911          cjd     = 0.001385        mjd     = 0.3392        
+pbswd   = 0.234           cjswd   = 5.324e-011      mjswd   = 0.03745         pbswgd  = 0.4806        
+cjswgd  = 4.601e-010      mjswgd  = 0.07873         tpb     = 0.00168         tcj     = 0.0007745     
+tpbsw   = 0.0005562       tcjsw   = 0.0003175       tpbswg  = 0.001801        tcjswg  = 0.0005604     
+xtis    = 1.5             xtid    = 1.5           
+tnoimod = 0
+fnoimod = 0               ef      = 0.89            kf      = 1.0e-23         af      = 2
+saref   = 2.43e-006       sbref   = 2.43e-006       wlod    = 0               kvth0   = 2.24e-009     
+lkvth0  = -2.67e-8        wkvth0  = -2.46e-10       pkvth0  = 0               llodvth = 3.33e-1             
+wlodvth = 3.33e-1         stk2    = 4e-10           lodk2   = 1               lodeta0 = 1             
+ku0     = -2.13e-9        lku0    = 1.26e-7         wku0    = 1.12e-7         pku0    = 0             
+llodku0 = 2.0e-1          wlodku0 = 2.0e-1          kvsat   = 0               steta0  = -4e-10             
+tku0    = 0             
+web     = 1.68e2         wec     = 1.88e3         kvth0we = 1.33e-2         k2we    = 0
+ku0we   = -9.35e-3        scref   = 1e-6
+wpemod  = 1
.model  NENHT33.1  nmos  level = 54
+lmin    = 6.92e-007       lmax    = 9.82e-007       wmin    = 3e-006          wmax    = 0.00010001    
+version = 4.5             binunit = 1               paramchk= 1               mobmod  = 0             
+capmod  = 2               igcmod  = 1               igbmod  = 1               geomod  = 0             
+diomod  = 1               rdsmod  = 0               rbodymod= 0               rgatemod= 0             
+permod  = 1               acnqsmod= 0               trnqsmod= 0             
+noia    = 2.5e+41         noib    = 2.33e+25        noic    = 8.75
+em      = 4.1e+7          
+tnom    = 25              toxe    = 7.5e-009        toxp    = 7.3e-009        toxm    = 7.5e-009      
+epsrox  = 3.9             wint    = 3.5e-008        lint    = 1e-008          ll      = 0             
+wl      = 0               lln     = 1               wln     = 1               lw      = 0             
+ww      = 0               lwn     = 1               wwn     = 1               lwl     = 0             
+wwl     = 0               dlc     = 3.2e-008        dwc     = 3.5e-008        xl      = 0             
+xw      = 0               xpart   = 0               toxref  = 7.5e-009        dlcig   = 0             
+vth0    = '0.55085903+(mcm_NENHT33_vth0*mcmScale)'      lvth0   = -0.0057180365   wvth0   = 0.0070194169    pvth0   = -0.0016473919 
+k1      = 0.72063266      lk1     = -0.0064735716   wk1     = 0.091824155     pk1     = -0.068400862  
+k2      = -0.0049514125   lk2     = -0.00012604724  wk2     = -0.00074736578  pk2     = -2.195071e-005
+k3      = 0               k3b     = 0               w0      = 0               dvt0    = 0             
+dvt1    = 0               dvt2    = 0               dvt0w   = 0               dvt1w   = 0             
+dvt2w   = 0               dsub    = 0.15            minv    = -0.53172414     lminv   = 0.22291862    
+wminv   = 4.1698328e-015  voffl   = 0               dvtp0   = 0               dvtp1   = 0             
+lpe0    = 0               lpeb    = 0               lambda  = 0               llambda = 0             
+wlambda = 0               plambda = 0               lc      = 0               xn      = 3             
+lxn     = 0               wxn     = 0               pxn     = 0               vbm     = -3            
+xj      = 1.5e-007        ngate   = 1e+023          ndep    = 2.17e+017       nsd     = 1e+020        
+phin    = 0               cdsc    = 0               cdscb   = 0               cdscd   = 0             
+cit     = 0.00010485866   lcit    = -2.2650156e-008  wcit    = -1.0494665e-006  pcit    = 7.6967856e-007
+voff    = -0.14986289     lvoff   = 0.0052506452    wvoff   = -0.064911367    pvoff   = 0.032336691   
+nfactor = 1               eta0    = -0.0034791665   leta0   = 0.0033950582    weta0   = 4.6538312e-018
+peta0   = 1.6288409e-017  etab    = 0.0034791665    letab   = -0.0033950582   wetab   = -4.6538312e-018
+petab   = -1.6288409e-017  u0      = '0.031468759*(((1+mcm_NENHT33_u0*mcmScale)-1)+1)'     lu0     = 0.0027444467    wu0     = 0.0040747192  
+pu0     = -0.0055592528   ua      = -7.5406762e-010  lua     = -1.2161421e-010  wua     = 1.4768858e-009
+pua     = -5.4110061e-010  ub      = 2.1944209e-018  lub     = 3.2348676e-019  wub     = -9.1842423e-019
+pub     = -5.5592528e-019  uc      = 3.6696695e-011  luc     = 4.7181968e-011  wuc     = 1.2208621e-010
+puc     = -1.3647966e-010  eu      = 1.67            vsat    = 89990.74        lvsat   = -4801.092     
+wvsat   = -1.0930966e-009  pvsat   = -3.1231333e-010  a0      = 0.66370824      la0     = 0.15642812    
+wa0     = -0.37573453     pa0     = -0.020797165    ags     = 0.2             a1      = 0             
+a2      = 0.99            b0      = 0               b1      = 0               keta    = -0.020511554  
+lketa   = 0.004520435     wketa   = 0.0078472382    pketa   = -0.007429089    dwg     = 0             
+dwb     = 0               pclm    = 0.5             pdiblc1 = 0.0001          pdiblc2 = -0.00018518519
+lpdiblc2= 0.00027434815   wpdiblc2= -5.817289e-019  ppdiblc2= -2.9086445e-019  pdiblcb = 0.01          
+drout   = 0.56            pvag    = 0.6             delta   = 0.01            pscbe1  = 3e+008        
+pscbe2  = 1e-006          fprout  = 0               pdits   = 0               pditsd  = 0             
+pditsl  = 0               rdsw    = 270             rdswmin = 0.0001          prwg    = 0             
+prwb    = 0               wr      = 1               alpha0  = 6e-007          alpha1  = 2.5           
+beta0   = 20              agidl   = 3e-008          bgidl   = 2.72e+009       cgidl   = 50            
+egidl   = 0.8             aigbacc = 1               bigbacc = 0               cigbacc = 0             
+nigbacc = 1               aigbinv = 1               bigbinv = 0               cigbinv = 0             
+eigbinv = 1.1             nigbinv = 3               aigc    = 1               bigc    = 0             
+cigc    = 0               aigsd   = 0.43            bigsd   = 0.054           cigsd   = 0.075         
+nigc    = 1               poxedge = 1               pigcd   = 1               ntox    = 1             
+xrcrg1  = 12              xrcrg2  = 1             
+cgso    = 1e-010          cgdo    = 1e-010          cgbo    = 1e-013          cgdl    = 1e-010        
+cgsl    = 1e-010          clc     = 1e-007          cle     = 0.6             ckappas = 0.6           
+ckappad = 0.6             vfbcv   = -1              acde    = -0.027777774    lacde   = 0.41152222    
+wacde   = 1.1913808e-015  pacde   = 1.1913808e-015  moin    = 15              noff    = 0.57407416    
+lnoff   = 1.3717407       wnoff   = -9.5310464e-015  pnoff   = -3.8124185e-014  voffcv  = 0.021296296   
+lvoffcv = -0.068587037    wvoffcv = -2.978452e-016  pvoffcv = 4.467678e-016 
+kt1     = -0.3518         kt1l    = 0               kt2     = -0.02052        ute     = -0.88185222   
+lute    = -0.18171884     wute    = 0.75642937      pute    = -0.20468511     ua1     = 3.5135282e-009
+lua1    = -8.7613125e-011  wua1    = 3.2554724e-009  pua1    = -1.6363364e-009  ub1     = -3.8021506e-018
+lub1    = -5.9244987e-019  wub1    = -2.2391913e-018  pub1    = 1.8102336e-018  uc1     = -5.8212131e-011
+luc1    = -2.7473509e-011  wuc1    = -9.2651469e-011  puc1    = 6.8218713e-011  prt     = 0             
+at      = 15000         
+jss     = 2.5e-006        jsws    = 4e-013          jswgs   = 2.5e-012        njs     = 1.15          
+ijthsfwd= 0.1             ijthsrev= 0.1             jsd     = 2.5e-006        jswd    = 4e-013        
+jswgd   = 2.5e-012        njd     = 1.15            ijthdfwd= 0.1             ijthdrev= 0.1           
+pbs     = 0.7911          cjs     = 0.001385        mjs     = 0.3392          pbsws   = 0.234         
+cjsws   = 5.324e-011      mjsws   = 0.03745         pbswgs  = 0.4806          cjswgs  = 4.601e-010    
+mjswgs  = 0.07873         pbd     = 0.7911          cjd     = 0.001385        mjd     = 0.3392        
+pbswd   = 0.234           cjswd   = 5.324e-011      mjswd   = 0.03745         pbswgd  = 0.4806        
+cjswgd  = 4.601e-010      mjswgd  = 0.07873         tpb     = 0.00168         tcj     = 0.0007745     
+tpbsw   = 0.0005562       tcjsw   = 0.0003175       tpbswg  = 0.001801        tcjswg  = 0.0005604     
+xtis    = 1.5             xtid    = 1.5           
+tnoimod = 0
+fnoimod = 0               ef      = 0.89            kf      = 1.0e-23         af      = 2
+saref   = 2.43e-006       sbref   = 2.43e-006       wlod    = 0               kvth0   = 2.24e-009     
+lkvth0  = -2.67e-8        wkvth0  = -2.46e-10       pkvth0  = 0               llodvth = 3.33e-1             
+wlodvth = 3.33e-1         stk2    = 4e-10           lodk2   = 1               lodeta0 = 1             
+ku0     = -2.13e-9        lku0    = 1.26e-7         wku0    = 1.12e-7         pku0    = 0             
+llodku0 = 2.0e-1          wlodku0 = 2.0e-1          kvsat   = 0               steta0  = -4e-10             
+tku0    = 0             
+web     = 1.68e2         wec     = 1.88e3         kvth0we = 1.33e-2         k2we    = 0
+ku0we   = -9.35e-3        scref   = 1e-6
+wpemod  = 1
.model  NENHT33.2  nmos  level = 54
+lmin    = 4.204e-007      lmax    = 6.92e-007       wmin    = 3e-006          wmax    = 0.00010001    
+version = 4.5             binunit = 1               paramchk= 1               mobmod  = 0             
+capmod  = 2               igcmod  = 1               igbmod  = 1               geomod  = 0             
+diomod  = 1               rdsmod  = 0               rbodymod= 0               rgatemod= 0             
+permod  = 1               acnqsmod= 0               trnqsmod= 0             
+noia    = 2.5e+41         noib    = 2.33e+25        noic    = 8.75
+em      = 4.1e+7          
+tnom    = 25              toxe    = 7.5e-009        toxp    = 7.3e-009        toxm    = 7.5e-009      
+epsrox  = 3.9             wint    = 3.5e-008        lint    = 1e-008          ll      = 0             
+wl      = 0               lln     = 1               wln     = 1               lw      = 0             
+ww      = 0               lwn     = 1               wwn     = 1               lwl     = 0             
+wwl     = 0               dlc     = 3.2e-008        dwc     = 3.5e-008        xl      = 0             
+xw      = 0               xpart   = 0               toxref  = 7.5e-009        dlcig   = 0             
+vth0    = '0.56276442+(mcm_NENHT33_vth0*mcmScale)'      lvth0   = -0.01371846     wvth0   = -0.034343934    pvth0   = 0.02614878    
+k1      = 0.78551771      lk1     = -0.050076327    wk1     = -0.076691656    pk1     = 0.044841763   
+k2      = -0.0049514126   lk2     = -0.00012604718  wk2     = -0.00074736545  pk2     = -2.1950931e-005
+k3      = 0               k3b     = 0               w0      = 0               dvt0    = 0             
+dvt1    = 0               dvt2    = 0               dvt0w   = 0               dvt1w   = 0             
+dvt2w   = 0               dsub    = 0.15            minv    = -0.34742268     lminv   = 0.099068041   
+wminv   = -1.2941593e-015  pminv   = -5.8825423e-017  voffl   = 0               dvtp0   = 0             
+dvtp1   = 0               lpe0    = 0               lpeb    = 0               lambda  = 0             
+llambda = 0               wlambda = 0               plambda = 0               lc      = 0             
+xn      = 3               lxn     = 0               wxn     = 0               pxn     = 0             
+vbm     = -3              xj      = 1.5e-007        ngate   = 1e+023          ndep    = 2.17e+017     
+nsd     = 1e+020          phin    = 0               cdsc    = 0               cdscb   = 0             
+cdscd   = 0               cit     = 0.00010485864   lcit    = -2.2640571e-008  wcit    = -1.0495246e-006
+pcit    = 7.6971759e-007  voff    = -0.15294826     lvoff   = 0.0073240108    wvoff   = -0.034273714  
+pvoff   = 0.011748189     nfactor = 1               eta0    = -0.0034791668   leta0   = 0.0033950584  
+weta0   = -3.676589e-018  etab    = 0.0034791668    letab   = -0.0033950584   wetab   = 3.676589e-018 
+u0      = '0.031449331*(((1+mcm_NENHT33_u0*mcmScale)-1)+1)'     lu0     = 0.0027575023    wu0     = 0.0041966929    pu0     = -0.0056412192 
+ua      = -7.5442477e-010  lua     = -1.213742e-010  wua     = 1.4780552e-009  pua     = -5.4188645e-010
+ub      = 2.262014e-018   lub     = 2.7806418e-019  wub     = -2.7751136e-018  pub     = 6.9176994e-019
+uc      = 9.3659018e-011  luc     = 8.9032873e-012  wuc     = -1.3609472e-010  puc     = 3.7017927e-011
+eu      = 1.67            vsat    = 89990.741       lvsat   = -4801.0929      wvsat   = 2.4673171e-010
+a0      = 1.2412562       la0     = -0.23168409     wa0     = 0.037900328     pa0     = -0.29875979   
+ags     = 0.2             a1      = 0               a2      = 0.99            b0      = 0             
+b1      = 0               keta    = -0.020511549    lketa   = 0.0045204314    wketa   = 0.0078472279  
+pketa   = -0.0074290821   dwg     = 0               dwb     = 0               pclm    = 0.5           
+pdiblc1 = 0.0001          pdiblc2 = -0.00018518518  lpdiblc2= 0.00027434815   ppdiblc2= -9.1914724e-019
+pdiblcb = 0.01            drout   = 0.56            pvag    = 0.6             delta   = 0.01          
+pscbe1  = 3e+008          pscbe2  = 1e-006          fprout  = 0               pdits   = 0             
+pditsd  = 0               pditsl  = 0               rdsw    = 270             rdswmin = 0.0001        
+prwg    = 0               prwb    = 0               wr      = 1               alpha0  = 6e-007        
+alpha1  = 2.5             beta0   = 20              agidl   = 3e-008          bgidl   = 2.72e+009     
+cgidl   = 50              egidl   = 0.8             aigbacc = 1               bigbacc = 0             
+cigbacc = 0               nigbacc = 1               aigbinv = 1               bigbinv = 0             
+cigbinv = 0               eigbinv = 1.1             nigbinv = 3               aigc    = 1             
+bigc    = 0               cigc    = 0               aigsd   = 0.43            bigsd   = 0.054         
+cigsd   = 0.075           nigc    = 1               poxedge = 1               pigcd   = 1             
+ntox    = 1               xrcrg1  = 12              xrcrg2  = 1             
+cgso    = 1e-010          cgdo    = 1e-010          cgbo    = 1e-013          cgdl    = 1e-010        
+cgsl    = 1e-010          clc     = 1e-007          cle     = 0.6             ckappas = 0.6           
+ckappad = 0.6             vfbcv   = -1              acde    = -0.027777781    lacde   = 0.41152222    
+wacde   = -4.7060339e-015  moin    = 15              noff    = 0.57407398      lnoff   = 1.3717408     
+wnoff   = 1.1294481e-014  pnoff   = -7.5296542e-015  voffcv  = 0.021296296     lvoffcv = -0.068587037  
+wvoffcv = 3.5295254e-016  pvoffcv = 5.8825423e-016
+kt1     = -0.3518         kt1l    = 0               kt2     = -0.02052        ute     = -0.88185187   
+lute    = -0.18171908     wute    = 0.75642842      pute    = -0.20468447     ua1     = 3.5135281e-009
+lua1    = -8.7613062e-011  wua1    = 3.2554737e-009  pua1    = -1.6363373e-009  ub1     = -3.8021505e-018
+lub1    = -5.9244995e-019  wub1    = -2.2391912e-018  pub1    = 1.8102335e-018  uc1     = -5.8212133e-011
+luc1    = -2.7473507e-011  wuc1    = -9.2651486e-011  puc1    = 6.8218724e-011  prt     = 0             
+at      = 15000         
+jss     = 2.5e-006        jsws    = 4e-013          jswgs   = 2.5e-012        njs     = 1.15          
+ijthsfwd= 0.1             ijthsrev= 0.1             jsd     = 2.5e-006        jswd    = 4e-013        
+jswgd   = 2.5e-012        njd     = 1.15            ijthdfwd= 0.1             ijthdrev= 0.1           
+pbs     = 0.7911          cjs     = 0.001385        mjs     = 0.3392          pbsws   = 0.234         
+cjsws   = 5.324e-011      mjsws   = 0.03745         pbswgs  = 0.4806          cjswgs  = 4.601e-010    
+mjswgs  = 0.07873         pbd     = 0.7911          cjd     = 0.001385        mjd     = 0.3392        
+pbswd   = 0.234           cjswd   = 5.324e-011      mjswd   = 0.03745         pbswgd  = 0.4806        
+cjswgd  = 4.601e-010      mjswgd  = 0.07873         tpb     = 0.00168         tcj     = 0.0007745     
+tpbsw   = 0.0005562       tcjsw   = 0.0003175       tpbswg  = 0.001801        tcjswg  = 0.0005604     
+xtis    = 1.5             xtid    = 1.5           
+tnoimod = 0
+fnoimod = 0               ef      = 0.89            kf      = 1.0e-23         af      = 2
+saref   = 2.43e-006       sbref   = 2.43e-006       wlod    = 0               kvth0   = 2.24e-009     
+lkvth0  = -2.67e-8        wkvth0  = -2.46e-10       pkvth0  = 0               llodvth = 3.33e-1             
+wlodvth = 3.33e-1         stk2    = 4e-10           lodk2   = 1               lodeta0 = 1             
+ku0     = -2.13e-9        lku0    = 1.26e-7         wku0    = 1.12e-7         pku0    = 0             
+llodku0 = 2.0e-1          wlodku0 = 2.0e-1          kvsat   = 0               steta0  = -4e-10             
+tku0    = 0             
+web     = 1.68e2         wec     = 1.88e3         kvth0we = 1.33e-2         k2we    = 0
+ku0we   = -9.35e-3        scref   = 1e-6
+wpemod  = 1
.model  NENHT33.3  nmos  level = 54
+lmin    = 3.574e-007      lmax    = 4.204e-007      wmin    = 3e-006          wmax    = 0.00010001    
+version = 4.5             binunit = 1               paramchk= 1               mobmod  = 0             
+capmod  = 2               igcmod  = 1               igbmod  = 1               geomod  = 0             
+diomod  = 1               rdsmod  = 0               rbodymod= 0               rgatemod= 0             
+permod  = 1               acnqsmod= 0               trnqsmod= 0             
+noia    = 2.5e+41         noib    = 2.33e+25        noic    = 8.75
+em      = 4.1e+7          
+tnom    = 25              toxe    = 7.5e-009        toxp    = 7.3e-009        toxm    = 7.5e-009      
+epsrox  = 3.9             wint    = 3.5e-008        lint    = 1e-008          ll      = 0             
+wl      = 0               lln     = 1               wln     = 1               lw      = 0             
+ww      = 0               lwn     = 1               wwn     = 1               lwl     = 0             
+wwl     = 0               dlc     = 3.2e-008        dwc     = 3.5e-008        xl      = 0             
+xw      = 0               xpart   = 0               toxref  = 7.5e-009        dlcig   = 0             
+vth0    = '0.57862769+(mcm_NENHT33_vth0*mcmScale)'      lvth0   = -0.020070112    wvth0   = 0.089557242     pvth0   = -0.023461251  
+k1      = 0.79402722      lk1     = -0.053483534    wk1     = 0.31051291      pk1     = -0.11019494   
+k2      = -0.0028422446   lk2     = -0.00097055803  wk2     = -0.008987156    pk2     = 0.0032772612  
+k3      = 0               k3b     = 0               w0      = 0               dvt0    = 0             
+dvt1    = 0               dvt2    = 0               dvt0w   = 0               dvt1w   = 0             
+dvt2w   = 0               dsub    = 0.15            minv    = -0.1            voffl   = 0             
+dvtp0   = 0               dvtp1   = 0               lpe0    = 0               lpeb    = 0             
+lambda  = 0               llambda = 0               wlambda = 0               plambda = 0             
+lc      = 0               xn      = 3               lxn     = 0               wxn     = 0             
+pxn     = 0               vbm     = -3              xj      = 1.5e-007        ngate   = 1e+023        
+ndep    = 2.17e+017       nsd     = 1e+020          phin    = 0               cdsc    = 0             
+cdscb   = 0               cdscd   = 0               cit     = 0.0001232832    lcit    = -7.3998341e-006
+wcit    = -6.724247e-005  pcit    = 2.7273373e-005  voff    = -0.13325124     lvoff   = -0.00056267746
+wvoff   = -0.031664284    pvoff   = 0.010703373     nfactor = 1               eta0    = -0.0057111111 
+leta0   = 0.0042887289    weta0   = -3.4451261e-016  peta0   = 6.8902521e-017  etab    = -0.005        
+u0      = '0.040987506*(((1+mcm_NENHT33_u0*mcmScale)-1)+1)'     lu0     = -0.0010615829   wu0     = -0.049514902    pu0     = 0.015864903   
+ua      = -7.4418676e-010  lua     = -1.254735e-010  wua     = -1.9766429e-009  pua     = 8.4137465e-010
+ub      = 2.1640108e-018  lub     = 3.1730467e-019  wub     = 2.5141688e-018  pub     = -1.4260587e-018
+uc      = 4.414624e-011   luc     = 2.8728204e-011  wuc     = 3.6037497e-010  puc     = -1.6176854e-010
+eu      = 1.67            vsat    = 93194.476       lvsat   = -6083.8683      wvsat   = -44519.815    
+pvsat   = 17825.734       a0      = 2.8840547       la0     = -0.88946062     wa0     = -5.9460093    
+pa0     = 2.0971976       ags     = 0.2             a1      = 0               a2      = 0.99          
+b0      = 0               b1      = 0               keta    = 0.012975074     lketa   = -0.0088876125 
+wketa   = -0.11359222     pketa   = 0.041195271     dwg     = 0               dwb     = 0             
+pclm    = 0.5             pdiblc1 = 0.0001          pdiblc2 = 0.0005          pdiblcb = 0.01          
+drout   = 0.56            pvag    = 0.6             delta   = 0.01            pscbe1  = 3e+008        
+pscbe2  = 1e-006          fprout  = 0               pdits   = 0               pditsd  = 0             
+pditsl  = 0               rdsw    = 270             rdswmin = 0.0001          prwg    = 0             
+prwb    = 0               wr      = 1               alpha0  = 6e-007          alpha1  = 2.5           
+beta0   = 20              agidl   = 3e-008          bgidl   = 2.72e+009       cgidl   = 50            
+egidl   = 0.8             aigbacc = 1               bigbacc = 0               cigbacc = 0             
+nigbacc = 1               aigbinv = 1               bigbinv = 0               cigbinv = 0             
+eigbinv = 1.1             nigbinv = 3               aigc    = 1               bigc    = 0             
+cigc    = 0               aigsd   = 0.43            bigsd   = 0.054           cigsd   = 0.075         
+nigc    = 1               poxedge = 1               pigcd   = 1               ntox    = 1             
+xrcrg1  = 12              xrcrg2  = 1             
+cgso    = 1e-010          cgdo    = 1e-010          cgbo    = 1e-013          cgdl    = 1e-010        
+cgsl    = 1e-010          clc     = 1e-007          cle     = 0.6             ckappas = 0.6           
+ckappad = 0.6             vfbcv   = -1              acde    = 1               moin    = 15            
+noff    = 4               voffcv  = -0.15         
+kt1     = -0.3518         kt1l    = 0               kt2     = -0.02052        ute     = -1.7839328    
+lute    = 0.17947411      wute    = 1.558563        pute    = -0.52585915     ua1     = 3.7109175e-009